data/nesta/nesta_case2737sop_mp__api.m
%%%%%%%%%%%%%%%%%%%%%%%%%%%%%%%%%%%%%%%%%%%%%%%%%%%%%%%%%%%%%%%%%%%%%%%%%%%
%%%%                                                                  %%%%%
%%%%      NICTA Energy System Test Case Archive (NESTA) - v0.1.5      %%%%%
%%%%            Optimal Power Flow - Active Power Increase            %%%%%
%%%%                       30 - October - 2014                        %%%%%
%%%%                                                                  %%%%%
%%%%%%%%%%%%%%%%%%%%%%%%%%%%%%%%%%%%%%%%%%%%%%%%%%%%%%%%%%%%%%%%%%%%%%%%%%%
function mpc = nesta_case2737sop_mp__api
mpc.version = '2';
mpc.baseMVA = 100.0;

%% area data
%	area	refbus
mpc.areas = [
	1	 18;
];

%% bus data
%	bus_i	type	Pd	Qd	Gs	Bs	area	Vm	Va	baseKV	zone	Vmax	Vmin
mpc.bus = [
	1	 1	 0.00	 0.00	 0.0	 0.0	 1	     1.0988	     3.1732	 220.0	 1	     1.1100	     0.9500;
	2	 1	 0.00	 0.00	 0.0	 0.0	 1	     1.1062	     2.1003	 220.0	 1	     1.1100	     0.9500;
	3	 1	 0.00	 0.00	 0.0	 0.0	 1	     1.0814	   -12.4144	 220.0	 1	     1.1100	     0.9500;
	4	 1	 0.00	 0.00	 0.0	 0.0	 1	     1.0979	    -0.2626	 220.0	 1	     1.1100	     0.9500;
	5	 1	 0.00	 0.00	 0.0	 0.0	 1	     1.0979	    -0.2590	 220.0	 1	     1.1100	     0.9500;
	6	 1	 0.00	 0.00	 0.0	 0.0	 1	     1.0785	    -6.7111	 220.0	 1	     1.1100	     0.9500;
	7	 1	 0.00	 0.00	 0.0	 0.0	 1	     1.0785	    -6.7055	 220.0	 1	     1.1100	     0.9500;
	8	 1	 0.00	 0.00	 0.0	 -50.0	 1	     1.0422	    -5.3046	 400.0	 1	     1.0500	     0.9500;
	9	 1	 0.00	 0.00	 0.0	 0.0	 1	     1.0423	    -5.3032	 400.0	 1	     1.0500	     0.9500;
	10	 1	 0.00	 0.00	 0.0	 0.0	 1	     1.0715	    -6.7531	 220.0	 1	     1.1100	     0.9500;
	11	 1	 0.00	 0.00	 0.0	 0.0	 1	     1.0715	    -6.7558	 220.0	 1	     1.1100	     0.9500;
	12	 1	 0.00	 0.00	 0.0	 0.0	 1	     1.0715	    -6.7512	 220.0	 1	     1.1100	     0.9500;
	13	 1	 0.00	 0.00	 0.0	 0.0	 1	     1.0715	    -6.7558	 220.0	 1	     1.1100	     0.9500;
	14	 1	 0.00	 0.00	 0.0	 -50.0	 1	     1.0362	    -4.2491	 400.0	 1	     1.0500	     0.9500;
	15	 1	 0.00	 0.00	 0.0	 0.0	 1	     1.0500	    -6.6753	 400.0	 1	     1.0500	     0.9500;
	16	 1	 0.00	 0.00	 0.0	 0.0	 1	     1.0500	    -6.6753	 400.0	 1	     1.0500	     0.9500;
	17	 1	 0.00	 0.00	 0.0	 0.0	 1	     1.0752	   -10.3263	 220.0	 1	     1.1100	     0.9500;
	18	 1	 0.00	 0.00	 0.0	 0.0	 1	     1.0751	   -10.3265	 220.0	 1	     1.1100	     0.9500;
	19	 1	 0.00	 0.00	 0.0	 0.0	 1	     1.1006	     0.2905	 220.0	 1	     1.1100	     0.9500;
	20	 1	 0.00	 0.00	 0.0	 0.0	 1	     1.1006	     0.2850	 220.0	 1	     1.1100	     0.9500;
	21	 1	 0.00	 0.00	 0.0	 0.0	 1	     1.0822	    -7.0075	 220.0	 1	     1.1100	     0.9500;
	22	 1	 0.00	 0.00	 0.0	 0.0	 1	     1.0822	    -7.0075	 220.0	 1	     1.1100	     0.9500;
	23	 1	 0.00	 0.00	 0.0	 0.0	 1	     1.0689	    -6.8095	 220.0	 1	     1.1100	     0.9500;
	24	 1	 0.00	 0.00	 0.0	 0.0	 1	     1.1024	     0.6897	 220.0	 1	     1.1100	     0.9500;
	25	 1	 0.00	 0.00	 0.0	 -50.0	 1	     1.0389	    -6.6166	 400.0	 1	     1.0500	     0.9500;
	26	 2	 91.49	 65.09	 0.0	 0.0	 1	     1.1083	     3.5097	 220.0	 1	     1.1100	     0.9500;
	27	 2	 53.45	 35.09	 0.0	 0.0	 1	     1.1074	     2.0774	 220.0	 1	     1.1100	     0.9500;
	28	 3	 0.00	 0.00	 0.0	 0.0	 1	     1.0449	     1.7781	 400.0	 1	     1.0500	     0.9500;
	29	 2	 84.89	 72.00	 0.0	 0.0	 1	     1.0449	     1.7863	 400.0	 1	     1.0500	     0.9500;
	30	 1	 0.00	 0.00	 0.0	 0.0	 1	     1.0767	    -7.0073	 220.0	 1	     1.1100	     0.9500;
	31	 1	 0.00	 0.00	 0.0	 0.0	 1	     1.0465	     0.7997	 400.0	 1	     1.0500	     0.9500;
	32	 1	 0.00	 0.00	 0.0	 0.0	 1	     1.0693	    -6.9043	 220.0	 1	     1.1100	     0.9500;
	33	 1	 0.00	 0.00	 0.0	 0.0	 1	     1.0992	    -1.7079	 220.0	 1	     1.1100	     0.9500;
	34	 1	 0.00	 0.00	 0.0	 0.0	 1	     1.1100	    -3.5436	 220.0	 2	     1.1100	     0.9500;
	35	 1	 0.00	 0.00	 0.0	 0.0	 1	     1.0805	    -4.3551	 220.0	 2	     1.1100	     0.9500;
	36	 1	 0.00	 0.00	 0.0	 0.0	 1	     1.0970	    -3.9055	 220.0	 2	     1.1100	     0.9500;
	37	 1	 0.00	 0.00	 0.0	 0.0	 1	     1.0969	    -3.9070	 220.0	 2	     1.1100	     0.9500;
	38	 1	 0.00	 0.00	 0.0	 0.0	 1	     1.1003	    -3.7899	 220.0	 2	     1.1100	     0.9500;
	39	 1	 0.00	 0.00	 0.0	 0.0	 1	     1.1071	    -3.9626	 220.0	 2	     1.1100	     0.9500;
	40	 1	 0.00	 0.00	 0.0	 0.0	 1	     1.1070	    -3.9655	 220.0	 2	     1.1100	     0.9500;
	41	 1	 0.00	 0.00	 0.0	 0.0	 1	     1.0389	    -3.8675	 400.0	 2	     1.0500	     0.9500;
	42	 2	 13.00	 0.00	 0.0	 0.0	 1	     1.0844	    -3.6252	 220.0	 2	     1.1100	     0.9500;
	43	 2	 13.00	 0.00	 0.0	 0.0	 1	     1.0844	    -3.6162	 220.0	 2	     1.1100	     0.9500;
	44	 2	 25.00	 0.00	 0.0	 0.0	 1	     1.0495	    -3.7143	 400.0	 2	     1.0500	     0.9500;
	45	 1	 0.00	 0.00	 0.0	 0.0	 1	     1.0495	    -3.7139	 400.0	 2	     1.0500	     0.9500;
	46	 1	 0.00	 0.00	 0.0	 0.0	 1	     1.1066	    -4.2521	 220.0	 2	     1.1100	     0.9500;
	47	 1	 0.00	 0.00	 0.0	 0.0	 1	     1.0388	    -6.4543	 400.0	 2	     1.0500	     0.9500;
	48	 1	 0.00	 0.00	 0.0	 0.0	 1	     1.0388	    -6.4585	 400.0	 2	     1.0500	     0.9500;
	49	 1	 0.00	 0.00	 0.0	 0.0	 1	     1.0467	    -3.6073	 400.0	 2	     1.0500	     0.9500;
	50	 1	 0.00	 0.00	 0.0	 0.0	 1	     1.1004	    -3.2193	 220.0	 2	     1.1100	     0.9500;
	51	 1	 0.00	 0.00	 0.0	 0.0	 1	     1.1003	    -3.2168	 220.0	 2	     1.1100	     0.9500;
	52	 1	 0.00	 0.00	 0.0	 0.0	 1	     1.0478	    -4.1911	 400.0	 2	     1.0500	     0.9500;
	53	 1	 0.00	 0.00	 0.0	 0.0	 1	     1.0478	    -4.1903	 400.0	 2	     1.0500	     0.9500;
	54	 1	 0.00	 0.00	 0.0	 0.0	 1	     1.0977	    -3.6115	 220.0	 2	     1.1100	     0.9500;
	55	 2	 13.00	 0.00	 0.0	 0.0	 1	     1.0977	    -3.6048	 220.0	 2	     1.1100	     0.9500;
	56	 2	 13.00	 0.00	 0.0	 0.0	 1	     1.0459	    -3.7637	 400.0	 2	     1.0500	     0.9500;
	57	 2	 13.00	 0.00	 0.0	 0.0	 1	     1.0459	    -3.7672	 400.0	 2	     1.0500	     0.9500;
	58	 2	 128.91	 25.27	 0.0	 0.0	 1	     1.0902	    -3.8335	 220.0	 2	     1.1100	     0.9500;
	59	 1	 0.00	 0.00	 0.0	 0.0	 1	     1.0903	    -3.8310	 220.0	 2	     1.1100	     0.9500;
	60	 1	 0.00	 0.00	 0.0	 0.0	 1	     1.1032	    -4.3319	 220.0	 2	     1.1100	     0.9500;
	61	 1	 0.00	 0.00	 0.0	 0.0	 1	     1.0899	    -4.0841	 220.0	 2	     1.1100	     0.9500;
	62	 1	 0.00	 0.00	 0.0	 0.0	 1	     1.0898	    -4.0841	 220.0	 2	     1.1100	     0.9500;
	63	 1	 0.00	 0.00	 0.0	 0.0	 1	     1.0375	    -4.6164	 400.0	 2	     1.0500	     0.9500;
	64	 1	 0.00	 0.00	 0.0	 0.0	 1	     1.0375	    -4.6243	 400.0	 2	     1.0500	     0.9500;
	65	 1	 0.00	 224.80	 0.0	 0.0	 1	     1.0496	    -4.5992	 750.0	 2	     1.0500	     0.9000;
	66	 1	 0.00	 0.00	 0.0	 0.0	 1	     1.1011	    -4.1128	 220.0	 2	     1.1100	     0.9500;
	67	 1	 0.00	 0.00	 0.0	 0.0	 1	     1.1018	    -4.0223	 220.0	 2	     1.1100	     0.9500;
	68	 1	 0.00	 0.00	 0.0	 0.0	 1	     1.0970	    -2.7102	 220.0	 2	     1.1100	     0.9500;
	69	 1	 0.00	 0.00	 0.0	 0.0	 1	     1.0999	    -1.5148	 220.0	 3	     1.1100	     0.9500;
	70	 1	 0.00	 0.00	 0.0	 0.0	 1	     1.1007	    -4.4939	 220.0	 3	     1.1100	     0.9500;
	71	 1	 0.00	 0.00	 0.0	 0.0	 1	     1.1007	    -4.4925	 220.0	 3	     1.1100	     0.9500;
	72	 1	 0.00	 0.00	 0.0	 0.0	 1	     1.0863	    -4.3937	 220.0	 3	     1.1100	     0.9500;
	73	 1	 0.00	 0.00	 0.0	 0.0	 1	     1.0863	    -4.3818	 220.0	 3	     1.1100	     0.9500;
	74	 1	 0.00	 0.00	 0.0	 0.0	 1	     1.0950	    -3.3715	 220.0	 3	     1.1100	     0.9500;
	75	 1	 0.00	 0.00	 0.0	 0.0	 1	     1.0950	    -3.3728	 220.0	 3	     1.1100	     0.9500;
	76	 1	 0.00	 0.00	 0.0	 0.0	 1	     1.0812	    -8.0357	 220.0	 3	     1.1100	     0.9500;
	77	 1	 0.00	 0.00	 0.0	 0.0	 1	     1.0812	    -8.0390	 220.0	 3	     1.1100	     0.9500;
	78	 2	 51.28	 70.00	 0.0	 0.0	 1	     1.0878	    -3.5711	 220.0	 3	     1.1100	     0.9500;
	79	 2	 17.09	 21.00	 0.0	 0.0	 1	     1.0883	    -4.1560	 220.0	 3	     1.1100	     0.9500;
	80	 1	 8.74	 0.91	 0.0	 0.0	 1	     1.0873	    -4.2560	 220.0	 3	     1.1100	     0.9500;
	81	 1	 0.00	 0.00	 0.0	 0.0	 1	     1.0873	    -4.2562	 220.0	 3	     1.1100	     0.9500;
	82	 2	 34.18	 57.00	 0.0	 0.0	 1	     1.0388	    -0.6556	 400.0	 3	     1.0500	     0.9500;
	83	 1	 0.00	 0.00	 0.0	 0.0	 1	     1.1079	    -2.5120	 220.0	 3	     1.1100	     0.9500;
	84	 1	 0.00	 0.00	 0.0	 0.0	 1	     1.0915	    -4.0745	 220.0	 3	     1.1100	     0.9500;
	85	 1	 0.00	 0.00	 0.0	 0.0	 1	     1.0915	    -4.0758	 220.0	 3	     1.1100	     0.9500;
	86	 1	 32.97	 -8.40	 0.0	 0.0	 1	     1.1006	    -1.6592	 220.0	 3	     1.1100	     0.9500;
	87	 1	 0.00	 0.00	 0.0	 0.0	 1	     1.1006	    -1.6637	 220.0	 3	     1.1100	     0.9500;
	88	 1	 0.00	 0.00	 0.0	 0.0	 1	     1.0865	    -3.6181	 220.0	 3	     1.1100	     0.9500;
	89	 1	 0.00	 0.00	 0.0	 0.0	 1	     1.0865	    -3.6185	 220.0	 3	     1.1100	     0.9500;
	90	 1	 0.00	 0.00	 0.0	 0.0	 1	     1.1004	    -1.2888	 220.0	 3	     1.1100	     0.9500;
	91	 1	 0.00	 0.00	 0.0	 0.0	 1	     1.1004	    -1.2923	 220.0	 3	     1.1100	     0.9500;
	92	 1	 0.00	 0.00	 0.0	 0.0	 1	     1.0486	     0.0470	 400.0	 3	     1.0500	     0.9500;
	93	 1	 0.00	 0.00	 0.0	 0.0	 1	     1.0486	     0.0460	 400.0	 3	     1.0500	     0.9500;
	94	 1	 0.00	 0.00	 0.0	 0.0	 1	     1.0899	    -3.7168	 220.0	 3	     1.1100	     0.9500;
	95	 1	 0.00	 0.00	 0.0	 0.0	 1	     1.0899	    -3.7218	 220.0	 3	     1.1100	     0.9500;
	96	 1	 0.00	 0.00	 0.0	 0.0	 1	     1.1006	    -2.9440	 220.0	 3	     1.1100	     0.9500;
	97	 1	 0.00	 0.00	 0.0	 0.0	 1	     1.1007	    -2.9418	 220.0	 3	     1.1100	     0.9500;
	98	 2	 18.87	 2.19	 0.0	 0.0	 1	     1.0911	    -3.8144	 220.0	 3	     1.1100	     0.9500;
	99	 1	 31.62	 3.29	 0.0	 0.0	 1	     1.0911	    -3.8120	 220.0	 3	     1.1100	     0.9500;
	100	 1	 0.00	 0.00	 0.0	 0.0	 1	     1.1007	    -4.4924	 220.0	 3	     1.1100	     0.9500;
	101	 1	 0.00	 0.00	 0.0	 0.0	 1	     1.1007	    -4.4937	 220.0	 3	     1.1100	     0.9500;
	102	 1	 0.00	 0.00	 0.0	 0.0	 1	     1.0818	    -7.4626	 220.0	 3	     1.1100	     0.9500;
	103	 1	 0.00	 0.00	 0.0	 0.0	 1	     1.0818	    -7.4523	 220.0	 3	     1.1100	     0.9500;
	104	 2	 26.59	 40.00	 0.0	 0.0	 1	     1.0923	    -4.0814	 220.0	 3	     1.1100	     0.9500;
	105	 1	 0.00	 0.00	 0.0	 0.0	 1	     1.0922	    -4.1003	 220.0	 3	     1.1100	     0.9500;
	106	 2	 13.29	 18.00	 0.0	 0.0	 1	     1.0901	    -3.3210	 220.0	 3	     1.1100	     0.9500;
	107	 1	 0.00	 0.00	 0.0	 0.0	 1	     1.0901	    -3.3208	 220.0	 3	     1.1100	     0.9500;
	108	 1	 52.47	 5.87	 0.0	 0.0	 1	     1.0944	    -3.3499	 220.0	 3	     1.1100	     0.9500;
	109	 1	 33.28	 3.34	 0.0	 0.0	 1	     1.0944	    -3.3571	 220.0	 3	     1.1100	     0.9500;
	110	 1	 0.00	 0.00	 0.0	 0.0	 1	     1.0857	    -4.6384	 220.0	 3	     1.1100	     0.9500;
	111	 1	 0.00	 0.00	 0.0	 0.0	 1	     1.0877	    -4.1208	 220.0	 3	     1.1100	     0.9500;
	112	 1	 0.00	 0.00	 0.0	 0.0	 1	     1.0877	    -4.1215	 220.0	 3	     1.1100	     0.9500;
	113	 1	 0.00	 0.00	 0.0	 0.0	 1	     1.0867	    -4.2665	 220.0	 3	     1.1100	     0.9500;
	114	 1	 0.00	 0.00	 0.0	 0.0	 1	     1.0867	    -4.2614	 220.0	 3	     1.1100	     0.9500;
	115	 1	 0.00	 0.00	 0.0	 0.0	 1	     1.0367	    -2.1113	 400.0	 3	     1.0500	     0.9500;
	116	 1	 0.00	 0.00	 0.0	 0.0	 1	     1.0892	    -3.8413	 220.0	 3	     1.1100	     0.9500;
	117	 2	 15.19	 15.00	 0.0	 0.0	 1	     1.0892	    -3.8319	 220.0	 3	     1.1100	     0.9500;
	118	 1	 0.00	 0.00	 0.0	 0.0	 1	     1.0883	    -4.4255	 220.0	 3	     1.1100	     0.9500;
	119	 1	 0.00	 0.00	 0.0	 0.0	 1	     1.0884	    -4.4243	 220.0	 3	     1.1100	     0.9500;
	120	 1	 0.00	 0.00	 0.0	 0.0	 1	     1.0471	    -3.9627	 400.0	 3	     1.0500	     0.9500;
	121	 1	 0.00	 0.00	 0.0	 0.0	 1	     1.0471	    -3.9587	 400.0	 3	     1.0500	     0.9500;
	122	 1	 0.00	 0.00	 0.0	 0.0	 1	     1.0431	    -1.9199	 400.0	 3	     1.0500	     0.9500;
	123	 1	 0.00	 0.00	 0.0	 0.0	 1	     1.0431	    -1.9170	 400.0	 3	     1.0500	     0.9500;
	124	 1	 0.00	 0.00	 0.0	 0.0	 1	     1.0851	    -4.7105	 220.0	 3	     1.1100	     0.9500;
	125	 1	 5.56	 0.87	 0.0	 0.0	 1	     1.0979	    -3.1117	 220.0	 3	     1.1100	     0.9500;
	126	 2	 37.79	 27.71	 0.0	 0.0	 1	     1.0978	    -3.1062	 220.0	 3	     1.1100	     0.9500;
	127	 2	 23.17	 25.80	 0.0	 0.0	 1	     1.0314	    -1.7714	 400.0	 3	     1.0500	     0.9500;
	128	 1	 0.00	 0.00	 0.0	 0.0	 1	     1.0314	    -1.7757	 400.0	 3	     1.0500	     0.9500;
	129	 1	 0.00	 0.00	 0.0	 0.0	 1	     1.1005	    -1.7534	 220.0	 3	     1.1100	     0.9500;
	130	 1	 0.00	 0.00	 0.0	 0.0	 1	     1.1004	    -1.7542	 220.0	 3	     1.1100	     0.9500;
	131	 1	 0.00	 0.00	 0.0	 0.0	 1	     1.0998	    -1.6361	 220.0	 3	     1.1100	     0.9500;
	132	 2	 260.18	 9.00	 0.0	 0.0	 1	     1.0806	    -8.4584	 220.0	 3	     1.1100	     0.9500;
	133	 2	 260.18	 6.00	 0.0	 0.0	 1	     1.0806	    -8.4631	 220.0	 3	     1.1100	     0.9500;
	134	 1	 0.98	 1.97	 0.0	 0.0	 1	     1.1010	    -2.5005	 220.0	 4	     1.1100	     0.9500;
	135	 2	 28.95	 14.28	 0.0	 0.0	 1	     1.1011	    -2.4978	 220.0	 4	     1.1100	     0.9500;
	136	 1	 0.00	 0.00	 0.0	 0.0	 1	     1.1090	    -2.9075	 220.0	 4	     1.1100	     0.9500;
	137	 1	 0.00	 0.00	 0.0	 0.0	 1	     1.1084	    -2.2905	 220.0	 4	     1.1100	     0.9500;
	138	 1	 0.00	 0.00	 0.0	 0.0	 1	     1.0336	    -2.2052	 400.0	 4	     1.0500	     0.9500;
	139	 1	 0.00	 0.00	 0.0	 0.0	 1	     1.0336	    -2.2078	 400.0	 4	     1.0500	     0.9500;
	140	 1	 0.00	 0.00	 0.0	 0.0	 1	     1.1019	    -7.2447	 220.0	 4	     1.1100	     0.9500;
	141	 1	 0.00	 0.00	 0.0	 0.0	 1	     1.0937	    -6.1673	 220.0	 4	     1.1100	     0.9500;
	142	 1	 0.00	 0.00	 0.0	 0.0	 1	     1.0937	    -6.1673	 220.0	 4	     1.1100	     0.9500;
	143	 1	 0.00	 0.00	 0.0	 0.0	 1	     1.1025	    -6.0409	 220.0	 4	     1.1100	     0.9500;
	144	 1	 0.00	 0.00	 0.0	 0.0	 1	     1.1064	    -3.4133	 220.0	 4	     1.1100	     0.9500;
	145	 1	 0.00	 0.00	 0.0	 0.0	 1	     1.1064	    -3.4133	 220.0	 4	     1.1100	     0.9500;
	146	 1	 14.50	 13.26	 0.0	 0.0	 1	     1.0991	    -4.3104	 220.0	 4	     1.1100	     0.9500;
	147	 1	 0.00	 0.00	 0.0	 0.0	 1	     1.0991	    -4.3087	 220.0	 4	     1.1100	     0.9500;
	148	 2	 20.64	 14.87	 0.0	 0.0	 1	     1.0964	    -5.3204	 220.0	 4	     1.1100	     0.9500;
	149	 1	 0.00	 0.00	 0.0	 0.0	 1	     1.0965	    -5.3319	 220.0	 4	     1.1100	     0.9500;
	150	 2	 20.87	 15.00	 0.0	 0.0	 1	     1.0337	    -8.0338	 400.0	 4	     1.0500	     0.9500;
	151	 2	 39.26	 21.48	 0.0	 0.0	 1	     1.0337	    -8.0315	 400.0	 4	     1.0500	     0.9500;
	152	 1	 0.00	 0.00	 0.0	 0.0	 1	     1.0984	    -6.7794	 220.0	 4	     1.1100	     0.9500;
	153	 1	 0.00	 0.00	 0.0	 0.0	 1	     1.1078	    -4.3612	 220.0	 4	     1.1100	     0.9500;
	154	 1	 0.00	 0.00	 0.0	 0.0	 1	     1.1078	    -4.3636	 220.0	 4	     1.1100	     0.9500;
	155	 2	 0.00	 0.00	 0.0	 0.0	 1	     1.1055	    -0.9184	 220.0	 4	     1.1100	     0.9500;
	156	 2	 26.34	 33.00	 0.0	 0.0	 1	     1.1055	    -0.9126	 220.0	 4	     1.1100	     0.9500;
	157	 1	 0.00	 0.00	 0.0	 0.0	 1	     1.0209	    -0.0242	 400.0	 4	     1.0500	     0.9500;
	158	 2	 18.97	 25.00	 0.0	 0.0	 1	     1.0209	    -0.0197	 400.0	 4	     1.0500	     0.9500;
	159	 1	 0.00	 0.00	 0.0	 0.0	 1	     1.0982	    -6.1687	 220.0	 4	     1.1100	     0.9500;
	160	 1	 0.00	 0.00	 0.0	 0.0	 1	     1.0982	    -6.1687	 220.0	 4	     1.1100	     0.9500;
	161	 1	 0.00	 0.00	 0.0	 0.0	 1	     1.0381	    -2.8508	 400.0	 4	     1.0500	     0.9500;
	162	 1	 0.00	 0.00	 0.0	 0.0	 1	     1.0381	    -2.3258	 400.0	 4	     1.0500	     0.9500;
	163	 1	 0.00	 0.00	 0.0	 0.0	 1	     1.0381	    -2.3254	 400.0	 4	     1.0500	     0.9500;
	164	 2	 22.15	 11.00	 0.0	 0.0	 1	     1.1006	    -4.4219	 220.0	 4	     1.1100	     0.9500;
	165	 2	 21.96	 10.67	 0.0	 0.0	 1	     1.1006	    -4.4366	 220.0	 4	     1.1100	     0.9500;
	166	 1	 0.00	 0.00	 0.0	 0.0	 1	     1.1006	    -4.4366	 220.0	 4	     1.1100	     0.9500;
	167	 1	 0.00	 0.00	 0.0	 0.0	 1	     1.1079	   -11.1882	 220.0	 4	     1.1100	     0.9500;
	168	 1	 0.00	 0.00	 0.0	 0.0	 1	     1.0930	    -6.2259	 220.0	 4	     1.1100	     0.9500;
	169	 1	 0.00	 0.00	 0.0	 0.0	 1	     1.1079	    -7.7993	 220.0	 4	     1.1100	     0.9500;
	170	 1	 0.00	 0.00	 0.0	 0.0	 1	     1.1079	    -7.8048	 220.0	 4	     1.1100	     0.9500;
	171	 1	 0.00	 0.00	 0.0	 0.0	 1	     1.0274	    -8.0768	 400.0	 4	     1.0500	     0.9500;
	172	 1	 0.00	 0.00	 0.0	 0.0	 1	     1.0274	    -8.0768	 400.0	 4	     1.0500	     0.9500;
	173	 1	 0.00	 0.00	 0.0	 0.0	 1	     1.0972	    -4.9314	 220.0	 4	     1.1100	     0.9500;
	174	 1	 0.00	 0.00	 0.0	 0.0	 1	     1.0972	    -4.9292	 220.0	 4	     1.1100	     0.9500;
	175	 1	 0.00	 0.00	 0.0	 0.0	 1	     1.0936	    -6.2290	 220.0	 4	     1.1100	     0.9500;
	176	 1	 0.00	 0.00	 0.0	 0.0	 1	     1.1087	    -2.8519	 220.0	 4	     1.1100	     0.9500;
	177	 1	 0.00	 0.00	 0.0	 0.0	 1	     1.1087	    -2.8507	 220.0	 4	     1.1100	     0.9500;
	178	 1	 0.00	 0.00	 0.0	 0.0	 1	     1.1100	    -3.0396	 220.0	 4	     1.1100	     0.9500;
	179	 1	 0.00	 0.00	 0.0	 0.0	 1	     1.1100	    -3.0396	 220.0	 4	     1.1100	     0.9500;
	180	 2	 5.94	 1.50	 0.0	 0.0	 1	     1.1100	    -3.4533	 220.0	 4	     1.1100	     0.9500;
	181	 1	 0.00	 0.00	 0.0	 0.0	 1	     1.0977	    -5.2093	 220.0	 4	     1.1100	     0.9500;
	182	 1	 0.00	 0.00	 0.0	 0.0	 1	     1.0906	   -11.5507	 220.0	 5	     1.1100	     0.9500;
	183	 1	 0.00	 0.00	 0.0	 0.0	 1	     1.1016	   -14.2079	 220.0	 5	     1.1100	     0.9500;
	184	 1	 0.00	 0.00	 0.0	 0.0	 1	     1.0352	   -13.7588	 400.0	 5	     1.0500	     0.9500;
	185	 1	 0.00	 0.00	 0.0	 0.0	 1	     1.0352	   -13.7507	 400.0	 5	     1.0500	     0.9500;
	186	 1	 0.00	 0.00	 0.0	 0.0	 1	     1.0359	   -16.3095	 400.0	 5	     1.0500	     0.9500;
	187	 1	 0.00	 0.00	 0.0	 0.0	 1	     1.0359	   -16.3151	 400.0	 5	     1.0500	     0.9500;
	188	 1	 0.00	 0.00	 0.0	 0.0	 1	     1.1013	   -15.7994	 220.0	 5	     1.1100	     0.9500;
	189	 1	 0.00	 0.00	 0.0	 0.0	 1	     1.1014	   -15.7999	 220.0	 5	     1.1100	     0.9500;
	190	 1	 0.00	 0.00	 0.0	 0.0	 1	     1.0968	   -13.6475	 220.0	 5	     1.1100	     0.9500;
	191	 1	 0.00	 0.00	 0.0	 0.0	 1	     1.0968	   -13.6413	 220.0	 5	     1.1100	     0.9500;
	192	 1	 0.00	 0.00	 0.0	 0.0	 1	     1.0251	   -11.5367	 400.0	 5	     1.0500	     0.9500;
	193	 1	 0.00	 0.00	 0.0	 0.0	 1	     1.0911	   -11.1197	 220.0	 5	     1.1100	     0.9500;
	194	 1	 0.00	 0.00	 0.0	 0.0	 1	     1.0911	   -11.1186	 220.0	 5	     1.1100	     0.9500;
	195	 1	 0.00	 0.00	 0.0	 0.0	 1	     1.0431	   -16.2356	 400.0	 5	     1.0500	     0.9500;
	196	 1	 0.00	 0.00	 0.0	 0.0	 1	     1.0431	   -16.2353	 400.0	 5	     1.0500	     0.9500;
	197	 1	 0.00	 0.00	 0.0	 0.0	 1	     1.0714	   -13.7759	 220.0	 5	     1.1100	     0.9500;
	198	 1	 0.00	 0.00	 0.0	 0.0	 1	     1.0714	   -13.7747	 220.0	 5	     1.1100	     0.9500;
	199	 1	 0.00	 0.00	 0.0	 -117.0	 1	     1.0270	   -15.5506	 400.0	 5	     1.0500	     0.9500;
	200	 1	 0.00	 0.00	 0.0	 0.0	 1	     1.0270	   -15.5435	 400.0	 5	     1.0500	     0.9500;
...
];

%% generator data
%	bus	Pg	Qg	Qmax	Qmin	Vg	mBase	status	Pmax	Pmin	Pc1	Pc2	Qc1min	Qc1max	Qc2min	Qc2max	ramp_agc	ramp_10	ramp_30	ramp_q	apf
mpc.gen = [
	17	 0.0	 0.0	 156.0	 -156.0	 1.07567	 241.9	 0	 312	 70.0	 0.0	 0.0	 0.0	 0.0	 0.0	 0.0	 0.0	 0.0	 0.0	 0.0	 0.0; % COW
	17	 0.0	 0.0	 120.0	 -73.0	 1.07567	 233.2	 0	 146	 70.0	 0.0	 0.0	 0.0	 0.0	 0.0	 0.0	 0.0	 0.0	 0.0	 0.0	 0.0; % NG
	26	 341.0	 25.0	 209.0	 -209.0	 1.08527	 415.9	 1	 418	 145.0	 0.0	 0.0	 0.0	 0.0	 0.0	 0.0	 0.0	 0.0	 0.0	 0.0	 0.0; % NG
	27	 357.0	 82.0	 202.0	 -202.0	 1.08827	 407.1	 1	 403	 145.0	 0.0	 0.0	 0.0	 0.0	 0.0	 0.0	 0.0	 0.0	 0.0	 0.0	 0.0; % NG
	27	 0.0	 0.0	 190.0	 -74.0	 1.08827	 407.1	 0	 147	 145.0	 0.0	 0.0	 0.0	 0.0	 0.0	 0.0	 0.0	 0.0	 0.0	 0.0	 0.0; % COW
	27	 0.0	 0.0	 190.0	 -25.0	 1.08827	 415.9	 0	 49	 290.0	 0.0	 0.0	 0.0	 0.0	 0.0	 0.0	 0.0	 0.0	 0.0	 0.0	 0.0; % NG
	26	 341.0	 25.0	 195.0	 -195.0	 1.08527	 415.9	 1	 390	 145.0	 0.0	 0.0	 0.0	 0.0	 0.0	 0.0	 0.0	 0.0	 0.0	 0.0	 0.0; % COW
	28	 361.0	 -68.0	 360.0	 -360.0	 1.027	 415.9	 1	 720	 145.0	 0.0	 0.0	 0.0	 0.0	 0.0	 0.0	 0.0	 0.0	 0.0	 0.0	 0.0; % COW
	28	 0.0	 0.0	 583.0	 -583.0	 1.027	 415.9	 0	 1165	 145.0	 0.0	 0.0	 0.0	 0.0	 0.0	 0.0	 0.0	 0.0	 0.0	 0.0	 0.0; % NUC
	28	 0.0	 0.0	 665.0	 -665.0	 1.027	 415.9	 0	 1330	 145.0	 0.0	 0.0	 0.0	 0.0	 0.0	 0.0	 0.0	 0.0	 0.0	 0.0	 0.0; % NUC
	29	 0.0	 0.0	 190.0	 -57.0	 1.027	 415.9	 0	 114	 290.0	 0.0	 0.0	 0.0	 0.0	 0.0	 0.0	 0.0	 0.0	 0.0	 0.0	 0.0; % NG
	29	 360.0	 -141.0	 342.0	 -342.0	 1.027	 415.9	 1	 684	 145.0	 0.0	 0.0	 0.0	 0.0	 0.0	 0.0	 0.0	 0.0	 0.0	 0.0	 0.0; % NG
	29	 360.0	 -141.0	 269.0	 -269.0	 1.027	 415.9	 1	 537	 145.0	 0.0	 0.0	 0.0	 0.0	 0.0	 0.0	 0.0	 0.0	 0.0	 0.0	 0.0; % COW
	42	 200.0	 97.0	 146.0	 -146.0	 1.09086	 253.9	 1	 292	 65.0	 0.0	 0.0	 0.0	 0.0	 0.0	 0.0	 0.0	 0.0	 0.0	 0.0	 0.0; % NG
	42	 0.0	 0.0	 130.0	 -36.0	 1.09086	 242.7	 0	 71	 67.5	 0.0	 0.0	 0.0	 0.0	 0.0	 0.0	 0.0	 0.0	 0.0	 0.0	 0.0; % NG
	42	 0.0	 0.0	 145.0	 -45.0	 1.09086	 267.7	 0	 89	 55.0	 0.0	 0.0	 0.0	 0.0	 0.0	 0.0	 0.0	 0.0	 0.0	 0.0	 0.0; % NG
	43	 0.0	 0.0	 145.0	 -111.0	 1.09091	 267.7	 0	 221	 60.0	 0.0	 0.0	 0.0	 0.0	 0.0	 0.0	 0.0	 0.0	 0.0	 0.0	 0.0; % NG
	43	 197.0	 9.0	 172.0	 -172.0	 1.09091	 267.7	 1	 344	 65.0	 0.0	 0.0	 0.0	 0.0	 0.0	 0.0	 0.0	 0.0	 0.0	 0.0	 0.0; % NG
	43	 0.0	 0.0	 292.0	 -292.0	 1.09091	 242.7	 0	 584	 67.5	 0.0	 0.0	 0.0	 0.0	 0.0	 0.0	 0.0	 0.0	 0.0	 0.0	 0.0; % COW
	44	 331.0	 -149.0	 389.0	 -389.0	 1.04817	 646.5	 1	 777	 127.5	 0.0	 0.0	 0.0	 0.0	 0.0	 0.0	 0.0	 0.0	 0.0	 0.0	 0.0; % COW
	44	 0.0	 0.0	 348.0	 -100.0	 1.04817	 659.3	 0	 62	 250.0	 0.0	 0.0	 0.0	 0.0	 0.0	 0.0	 0.0	 0.0	 0.0	 0.0	 0.0; % NG
	54	 0.0	 0.0	 191.0	 -191.0	 1.09127	 247.9	 0	 381	 64.5	 0.0	 0.0	 0.0	 0.0	 0.0	 0.0	 0.0	 0.0	 0.0	 0.0	 0.0; % NG
	55	 196.0	 -118.0	 130.0	 -141.6	 1.09126	 259.9	 1	 234	 64.5	 0.0	 0.0	 0.0	 0.0	 0.0	 0.0	 0.0	 0.0	 0.0	 0.0	 0.0; % COW
	54	 0.0	 0.0	 130.0	 -40.0	 1.09127	 259.9	 0	 79	 64.5	 0.0	 0.0	 0.0	 0.0	 0.0	 0.0	 0.0	 0.0	 0.0	 0.0	 0.0; % NG
	56	 311.0	 43.0	 261.0	 -261.0	 1.03933	 259.9	 1	 521	 64.5	 0.0	 0.0	 0.0	 0.0	 0.0	 0.0	 0.0	 0.0	 0.0	 0.0	 0.0; % NG
	57	 322.0	 91.0	 570.0	 -570.0	 1.03932	 259.9	 1	 1139	 64.5	 0.0	 0.0	 0.0	 0.0	 0.0	 0.0	 0.0	 0.0	 0.0	 0.0	 0.0; % COW
	57	 0.0	 0.0	 104.0	 -29.0	 1.03932	 247.9	 0	 58	 129.0	 0.0	 0.0	 0.0	 0.0	 0.0	 0.0	 0.0	 0.0	 0.0	 0.0	 0.0; % NG
	57	 0.0	 0.0	 130.0	 -120.0	 1.03932	 259.9	 0	 239	 64.5	 0.0	 0.0	 0.0	 0.0	 0.0	 0.0	 0.0	 0.0	 0.0	 0.0	 0.0; % NG
	58	 109.0	 -78.0	 113.0	 -113.0	 1.09864	 57.7	 1	 225	 19.85	 0.0	 0.0	 0.0	 0.0	 0.0	 0.0	 0.0	 0.0	 0.0	 0.0	 0.0; % COW
	78	 226.0	 66.0	 172.0	 -172.0	 1.06723	 256.4	 1	 344	 70.0	 0.0	 0.0	 0.0	 0.0	 0.0	 0.0	 0.0	 0.0	 0.0	 0.0	 0.0; % NG
	78	 226.0	 66.0	 414.0	 -414.0	 1.06723	 256.4	 1	 828	 70.0	 0.0	 0.0	 0.0	 0.0	 0.0	 0.0	 0.0	 0.0	 0.0	 0.0	 0.0; % COW
	79	 0.0	 0.0	 123.0	 -15.0	 1.07077	 252.0	 0	 14	 140.0	 0.0	 0.0	 0.0	 0.0	 0.0	 0.0	 0.0	 0.0	 0.0	 0.0	 0.0; % NG
	79	 0.0	 0.0	 440.0	 -440.0	 1.07077	 256.4	 0	 879	 70.0	 0.0	 0.0	 0.0	 0.0	 0.0	 0.0	 0.0	 0.0	 0.0	 0.0	 0.0; % COW
	79	 346.0	 71.0	 244.0	 -244.0	 1.07077	 256.4	 1	 487	 70.0	 0.0	 0.0	 0.0	 0.0	 0.0	 0.0	 0.0	 0.0	 0.0	 0.0	 0.0; % NG
	82	 287.0	 8.0	 232.0	 -158.0	 1.0186	 445.2	 1	 315	 110.0	 0.0	 0.0	 0.0	 0.0	 0.0	 0.0	 0.0	 0.0	 0.0	 0.0	 0.0; % NG
	82	 0.0	 0.0	 228.0	 -30.0	 1.0186	 434.6	 0	 42	 220.0	 0.0	 0.0	 0.0	 0.0	 0.0	 0.0	 0.0	 0.0	 0.0	 0.0	 0.0; % NG
	98	 97.0	 -37.0	 179.0	 -179.0	 1.07416	 12.0	 1	 358	 4.499	 0.0	 0.0	 0.0	 0.0	 0.0	 0.0	 0.0	 0.0	 0.0	 0.0	 0.0; % NG
	98	 94.0	 -37.0	 61.0	 -61.0	 1.07416	 6.1	 1	 121	 2.999	 0.0	 0.0	 0.0	 0.0	 0.0	 0.0	 0.0	 0.0	 0.0	 0.0	 0.0; % PEL
	104	 643.0	 711.0	 853.2	 -853.2	 1.06927	 256.4	 1	 1658	 67.0	 0.0	 0.0	 0.0	 0.0	 0.0	 0.0	 0.0	 0.0	 0.0	 0.0	 0.0; % COW
	105	 0.0	 0.0	 123.0	 -88.0	 1.06917	 256.4	 0	 175	 67.0	 0.0	 0.0	 0.0	 0.0	 0.0	 0.0	 0.0	 0.0	 0.0	 0.0	 0.0; % NG
	106	 169.0	 -202.0	 242.4	 -242.4	 1.06843	 144.2	 1	 235	 39.5	 0.0	 0.0	 0.0	 0.0	 0.0	 0.0	 0.0	 0.0	 0.0	 0.0	 0.0; % NG
	107	 0.0	 0.0	 80.0	 -9.0	 1.0684	 144.2	 0	 17	 79.0	 0.0	 0.0	 0.0	 0.0	 0.0	 0.0	 0.0	 0.0	 0.0	 0.0	 0.0; % NG
	116	 0.0	 0.0	 90.0	 -20.0	 1.07086	 150.0	 0	 39	 90.0	 0.0	 0.0	 0.0	 0.0	 0.0	 0.0	 0.0	 0.0	 0.0	 0.0	 0.0; % NG
	117	 175.0	 -110.0	 132.0	 -132.0	 1.07082	 145.3	 1	 191	 35.0	 0.0	 0.0	 0.0	 0.0	 0.0	 0.0	 0.0	 0.0	 0.0	 0.0	 0.0; % NG
	118	 0.0	 0.0	 382.0	 -382.0	 1.07063	 117.0	 0	 764	 40.0	 0.0	 0.0	 0.0	 0.0	 0.0	 0.0	 0.0	 0.0	 0.0	 0.0	 0.0; % COW
	125	 0.0	 0.0	 135.0	 -35.0	 1.0744	 253.9	 0	 45	 160.0	 0.0	 0.0	 0.0	 0.0	 0.0	 0.0	 0.0	 0.0	 0.0	 0.0	 0.0; % NG
	126	 0.0	 0.0	 140.0	 -50.0	 1.07421	 265.0	 0	 99	 70.0	 0.0	 0.0	 0.0	 0.0	 0.0	 0.0	 0.0	 0.0	 0.0	 0.0	 0.0; % NG
	126	 241.0	 321.0	 385.2	 -385.2	 1.07421	 253.9	 1	 325	 80.0	 0.0	 0.0	 0.0	 0.0	 0.0	 0.0	 0.0	 0.0	 0.0	 0.0	 0.0; % NG
	127	 228.0	 -145.0	 174.0	 -174.0	 1.01239	 265.0	 1	 264	 70.0	 0.0	 0.0	 0.0	 0.0	 0.0	 0.0	 0.0	 0.0	 0.0	 0.0	 0.0; % NG
	127	 0.0	 0.0	 137.0	 -40.0	 1.01239	 259.2	 0	 70	 160.0	 0.0	 0.0	 0.0	 0.0	 0.0	 0.0	 0.0	 0.0	 0.0	 0.0	 0.0; % NG
	132	 0.0	 133.0	 159.6	 -159.6	 1.06355	 131.2	 1	 0	 0.0	 0.0	 0.0	 0.0	 0.0	 0.0	 0.0	 0.0	 0.0	 0.0	 0.0	 0.0; % SYNC
	132	 0.0	 0.0	 40.0	 -38.0	 1.06355	 131.2	 0	 0	 0.0	 0.0	 0.0	 0.0	 0.0	 0.0	 0.0	 0.0	 0.0	 0.0	 0.0	 0.0; % SYNC
	133	 0.0	 0.0	 40.0	 -38.0	 1.06355	 131.2	 0	 0	 0.0	 0.0	 0.0	 0.0	 0.0	 0.0	 0.0	 0.0	 0.0	 0.0	 0.0	 0.0; % SYNC
	133	 0.0	 134.0	 160.8	 -160.8	 1.06355	 131.2	 1	 0	 0.0	 0.0	 0.0	 0.0	 0.0	 0.0	 0.0	 0.0	 0.0	 0.0	 0.0	 0.0; % SYNC
	134	 0.0	 0.0	 116.0	 -116.0	 1.0664	 150.0	 0	 232	 50.0	 0.0	 0.0	 0.0	 0.0	 0.0	 0.0	 0.0	 0.0	 0.0	 0.0	 0.0; % NG
	134	 0.0	 0.0	 90.0	 -44.0	 1.0664	 150.0	 0	 88	 50.0	 0.0	 0.0	 0.0	 0.0	 0.0	 0.0	 0.0	 0.0	 0.0	 0.0	 0.0; % NG
	135	 144.0	 -2.0	 104.0	 -104.0	 1.06642	 150.0	 1	 207	 50.0	 0.0	 0.0	 0.0	 0.0	 0.0	 0.0	 0.0	 0.0	 0.0	 0.0	 0.0; % NG
	146	 0.0	 0.0	 125.0	 -125.0	 1.05776	 51.4	 0	 250	 15.0	 0.0	 0.0	 0.0	 0.0	 0.0	 0.0	 0.0	 0.0	 0.0	 0.0	 0.0; % NG
	146	 0.0	 0.0	 41.0	 -41.0	 1.05776	 51.4	 0	 81	 15.0	 0.0	 0.0	 0.0	 0.0	 0.0	 0.0	 0.0	 0.0	 0.0	 0.0	 0.0; % NG
	147	 0.0	 0.0	 90.0	 -25.0	 1.05781	 150.0	 0	 49	 45.0	 0.0	 0.0	 0.0	 0.0	 0.0	 0.0	 0.0	 0.0	 0.0	 0.0	 0.0; % COW
	148	 0.0	 0.0	 159.0	 -159.0	 1.09091	 267.4	 0	 318	 45.0	 0.0	 0.0	 0.0	 0.0	 0.0	 0.0	 0.0	 0.0	 0.0	 0.0	 0.0; % NG
	148	 0.0	 0.0	 149.0	 -48.0	 1.09091	 253.4	 0	 78	 67.5	 0.0	 0.0	 0.0	 0.0	 0.0	 0.0	 0.0	 0.0	 0.0	 0.0	 0.0; % NG
	148	 0.0	 0.0	 149.0	 -64.0	 1.09091	 253.4	 0	 128	 67.5	 0.0	 0.0	 0.0	 0.0	 0.0	 0.0	 0.0	 0.0	 0.0	 0.0	 0.0; % COW
	148	 126.0	 -80.0	 149.0	 -120.0	 1.09091	 267.4	 1	 240	 45.0	 0.0	 0.0	 0.0	 0.0	 0.0	 0.0	 0.0	 0.0	 0.0	 0.0	 0.0; % COW
	150	 163.0	 104.0	 123.0	 -124.8	 1.01688	 253.8	 1	 238	 45.0	 0.0	 0.0	 0.0	 0.0	 0.0	 0.0	 0.0	 0.0	 0.0	 0.0	 0.0; % NG
	151	 163.0	 18.0	 149.0	 -109.0	 1.01688	 267.4	 1	 218	 45.0	 0.0	 0.0	 0.0	 0.0	 0.0	 0.0	 0.0	 0.0	 0.0	 0.0	 0.0; % NG
	151	 0.0	 0.0	 123.0	 -29.0	 1.01688	 253.8	 0	 58	 45.0	 0.0	 0.0	 0.0	 0.0	 0.0	 0.0	 0.0	 0.0	 0.0	 0.0	 0.0; % NG
	155	 133.0	 -84.0	 149.0	 -100.8	 1.08864	 278.3	 1	 200	 47.0	 0.0	 0.0	 0.0	 0.0	 0.0	 0.0	 0.0	 0.0	 0.0	 0.0	 0.0; % NG
	155	 0.0	 0.0	 149.0	 -92.0	 1.08864	 278.3	 0	 183	 47.0	 0.0	 0.0	 0.0	 0.0	 0.0	 0.0	 0.0	 0.0	 0.0	 0.0	 0.0; % NG
	155	 0.0	 0.0	 120.0	 -18.0	 1.08864	 287.3	 0	 35	 104.0	 0.0	 0.0	 0.0	 0.0	 0.0	 0.0	 0.0	 0.0	 0.0	 0.0	 0.0; % NG
	155	 0.0	 0.0	 132.0	 -61.0	 1.08864	 292.5	 0	 121	 52.0	 0.0	 0.0	 0.0	 0.0	 0.0	 0.0	 0.0	 0.0	 0.0	 0.0	 0.0; % NG
	156	 0.0	 0.0	 120.0	 -99.0	 1.08864	 287.3	 0	 198	 52.0	 0.0	 0.0	 0.0	 0.0	 0.0	 0.0	 0.0	 0.0	 0.0	 0.0	 0.0; % COW
	156	 168.0	 -70.0	 387.0	 -387.0	 1.08864	 236.0	 1	 774	 65.0	 0.0	 0.0	 0.0	 0.0	 0.0	 0.0	 0.0	 0.0	 0.0	 0.0	 0.0; % COW
	156	 158.0	 -70.0	 193.0	 -193.0	 1.08864	 233.1	 1	 385	 60.0	 0.0	 0.0	 0.0	 0.0	 0.0	 0.0	 0.0	 0.0	 0.0	 0.0	 0.0; % NG
	156	 0.0	 0.0	 109.0	 -108.0	 1.08864	 233.1	 0	 216	 60.0	 0.0	 0.0	 0.0	 0.0	 0.0	 0.0	 0.0	 0.0	 0.0	 0.0	 0.0; % NG
	158	 159.0	 214.0	 256.8	 -256.8	 0.99847	 233.1	 1	 457	 60.0	 0.0	 0.0	 0.0	 0.0	 0.0	 0.0	 0.0	 0.0	 0.0	 0.0	 0.0; % COW
	164	 0.0	 0.0	 104.0	 -38.0	 1.05768	 225.4	 0	 75	 150.0	 0.0	 0.0	 0.0	 0.0	 0.0	 0.0	 0.0	 0.0	 0.0	 0.0	 0.0; % NG
	164	 200.0	 -30.0	 177.0	 -177.0	 1.05768	 225.4	 1	 353	 75.0	 0.0	 0.0	 0.0	 0.0	 0.0	 0.0	 0.0	 0.0	 0.0	 0.0	 0.0; % NG
	165	 201.0	 -68.0	 127.0	 -127.0	 1.05768	 225.4	 1	 254	 75.0	 0.0	 0.0	 0.0	 0.0	 0.0	 0.0	 0.0	 0.0	 0.0	 0.0	 0.0; % NG
	165	 0.0	 0.0	 104.0	 -28.0	 1.05768	 225.4	 0	 56	 150.0	 0.0	 0.0	 0.0	 0.0	 0.0	 0.0	 0.0	 0.0	 0.0	 0.0	 0.0; % NG
	180	 155.0	 -11.0	 210.0	 -210.0	 1.09138	 219.5	 1	 419	 60.0	 0.0	 0.0	 0.0	 0.0	 0.0	 0.0	 0.0	 0.0	 0.0	 0.0	 0.0; % COW
	205	 0.0	 50.0	 80.0	 -60.0	 0.98664	 196.1	 1	 0	 0.0	 0.0	 0.0	 0.0	 0.0	 0.0	 0.0	 0.0	 0.0	 0.0	 0.0	 0.0; % SYNC
	205	 0.0	 50.0	 80.0	 -60.0	 0.98664	 196.1	 1	 0	 0.0	 0.0	 0.0	 0.0	 0.0	 0.0	 0.0	 0.0	 0.0	 0.0	 0.0	 0.0; % SYNC
	205	 0.0	 0.0	 110.0	 -60.0	 0.98664	 210.1	 0	 0	 0.0	 0.0	 0.0	 0.0	 0.0	 0.0	 0.0	 0.0	 0.0	 0.0	 0.0	 0.0; % SYNC
	206	 0.0	 0.0	 110.0	 -60.0	 0.98669	 210.1	 0	 0	 0.0	 0.0	 0.0	 0.0	 0.0	 0.0	 0.0	 0.0	 0.0	 0.0	 0.0	 0.0; % SYNC
	215	 59.0	 -4.0	 31.0	 -31.0	 1.09091	 58.5	 1	 62	 11.5	 0.0	 0.0	 0.0	 0.0	 0.0	 0.0	 0.0	 0.0	 0.0	 0.0	 0.0; % PEL
	215	 0.0	 0.0	 20.0	 0.0	 1.09091	 53.9	 0	 0	 0.0	 0.0	 0.0	 0.0	 0.0	 0.0	 0.0	 0.0	 0.0	 0.0	 0.0	 0.0; % SYNC
	215	 0.0	 0.0	 20.0	 0.0	 1.09091	 53.9	 0	 0	 0.0	 0.0	 0.0	 0.0	 0.0	 0.0	 0.0	 0.0	 0.0	 0.0	 0.0	 0.0; % SYNC
	215	 43.0	 -4.0	 27.0	 -27.0	 1.09091	 30.5	 1	 53	 3.5	 0.0	 0.0	 0.0	 0.0	 0.0	 0.0	 0.0	 0.0	 0.0	 0.0	 0.0; % PEL
	221	 22.0	 -3.0	 11.0	 -11.0	 1.0868	 2.3	 1	 22	 0.775	 0.0	 0.0	 0.0	 0.0	 0.0	 0.0	 0.0	 0.0	 0.0	 0.0	 0.0; % NG
	222	 37.0	 -5.0	 83.0	 -83.0	 1.0748	 2.3	 1	 166	 0.775	 0.0	 0.0	 0.0	 0.0	 0.0	 0.0	 0.0	 0.0	 0.0	 0.0	 0.0; % PEL
	240	 89.0	 9.0	 48.0	 -48.0	 1.05704	 9.8	 1	 95	 3.15	 0.0	 0.0	 0.0	 0.0	 0.0	 0.0	 0.0	 0.0	 0.0	 0.0	 0.0; % NG
	247	 346.0	 214.0	 256.8	 -256.8	 1.02878	 415.9	 1	 462	 145.0	 0.0	 0.0	 0.0	 0.0	 0.0	 0.0	 0.0	 0.0	 0.0	 0.0	 0.0; % COW
	310	 0.0	 0.0	 7.0	 0.0	 1.07912	 27.9	 0	 0	 0.0	 0.0	 0.0	 0.0	 0.0	 0.0	 0.0	 0.0	 0.0	 0.0	 0.0	 0.0; % SYNC
	310	 0.0	 0.0	 7.0	 0.0	 1.07912	 27.9	 0	 0	 0.0	 0.0	 0.0	 0.0	 0.0	 0.0	 0.0	 0.0	 0.0	 0.0	 0.0	 0.0; % SYNC
	310	 58.0	 -2.0	 93.0	 -93.0	 1.07912	 30.8	 1	 185	 5.5	 0.0	 0.0	 0.0	 0.0	 0.0	 0.0	 0.0	 0.0	 0.0	 0.0	 0.0; % NG
	310	 0.0	 0.0	 7.0	 0.0	 1.07912	 27.9	 0	 0	 0.0	 0.0	 0.0	 0.0	 0.0	 0.0	 0.0	 0.0	 0.0	 0.0	 0.0	 0.0; % SYNC
	310	 0.0	 0.0	 6.0	 0.0	 1.07912	 27.7	 0	 0	 0.0	 0.0	 0.0	 0.0	 0.0	 0.0	 0.0	 0.0	 0.0	 0.0	 0.0	 0.0; % SYNC
	310	 0.0	 0.0	 7.0	 0.0	 1.07912	 27.9	 0	 0	 0.0	 0.0	 0.0	 0.0	 0.0	 0.0	 0.0	 0.0	 0.0	 0.0	 0.0	 0.0; % SYNC
	310	 0.0	 0.0	 7.0	 0.0	 1.07912	 27.9	 0	 0	 0.0	 0.0	 0.0	 0.0	 0.0	 0.0	 0.0	 0.0	 0.0	 0.0	 0.0	 0.0; % SYNC
	311	 0.0	 0.0	 15.0	 0.0	 1.07689	 36.7	 0	 0	 0.0	 0.0	 0.0	 0.0	 0.0	 0.0	 0.0	 0.0	 0.0	 0.0	 0.0	 0.0; % SYNC
	311	 0.0	 0.0	 15.0	 0.0	 1.07689	 57.0	 0	 0	 0.0	 0.0	 0.0	 0.0	 0.0	 0.0	 0.0	 0.0	 0.0	 0.0	 0.0	 0.0; % SYNC
	312	 81.0	 8.0	 51.0	 -51.0	 1.07487	 36.7	 1	 101	 8.0	 0.0	 0.0	 0.0	 0.0	 0.0	 0.0	 0.0	 0.0	 0.0	 0.0	 0.0; % NG
	312	 0.0	 0.0	 15.0	 0.0	 1.07487	 57.0	 0	 0	 0.0	 0.0	 0.0	 0.0	 0.0	 0.0	 0.0	 0.0	 0.0	 0.0	 0.0	 0.0; % SYNC
	314	 67.0	 -16.0	 44.0	 -44.0	 1.08518	 53.9	 1	 87	 12.5	 0.0	 0.0	 0.0	 0.0	 0.0	 0.0	 0.0	 0.0	 0.0	 0.0	 0.0; % PEL
	314	 0.0	 0.0	 20.0	 0.0	 1.08518	 53.9	 0	 0	 0.0	 0.0	 0.0	 0.0	 0.0	 0.0	 0.0	 0.0	 0.0	 0.0	 0.0	 0.0; % SYNC
	315	 0.0	 0.0	 40.0	 0.0	 1.07925	 107.7	 0	 0	 0.0	 0.0	 0.0	 0.0	 0.0	 0.0	 0.0	 0.0	 0.0	 0.0	 0.0	 0.0; % SYNC
	323	 42.0	 -1.0	 23.0	 -23.0	 1.08432	 4.1	 1	 45	 1.25	 0.0	 0.0	 0.0	 0.0	 0.0	 0.0	 0.0	 0.0	 0.0	 0.0	 0.0; % PEL
	366	 115.0	 19.0	 148.0	 -148.0	 1.06091	 47.8	 1	 296	 20.0	 0.0	 0.0	 0.0	 0.0	 0.0	 0.0	 0.0	 0.0	 0.0	 0.0	 0.0; % NG
	367	 99.0	 19.0	 102.0	 -102.0	 1.06011	 47.8	 1	 203	 20.0	 0.0	 0.0	 0.0	 0.0	 0.0	 0.0	 0.0	 0.0	 0.0	 0.0	 0.0; % NG
	368	 113.0	 14.0	 69.0	 -69.0	 1.06213	 47.8	 1	 138	 20.0	 0.0	 0.0	 0.0	 0.0	 0.0	 0.0	 0.0	 0.0	 0.0	 0.0	 0.0; % NG
	369	 98.0	 11.0	 152.0	 -152.0	 1.06706	 47.8	 1	 304	 20.0	 0.0	 0.0	 0.0	 0.0	 0.0	 0.0	 0.0	 0.0	 0.0	 0.0	 0.0; % COW
	386	 175.0	 -18.0	 138.0	 -103.0	 1.08555	 251.3	 1	 205	 70.0	 0.0	 0.0	 0.0	 0.0	 0.0	 0.0	 0.0	 0.0	 0.0	 0.0	 0.0; % NG
	386	 0.0	 0.0	 41.0	 -41.0	 1.08555	 26.9	 0	 82	 6.0	 0.0	 0.0	 0.0	 0.0	 0.0	 0.0	 0.0	 0.0	 0.0	 0.0	 0.0; % NG
	387	 120.0	 41.0	 60.0	 -60.0	 1.06898	 19.7	 1	 120	 5.0	 0.0	 0.0	 0.0	 0.0	 0.0	 0.0	 0.0	 0.0	 0.0	 0.0	 0.0; % PEL
	444	 35.0	 4.0	 33.0	 -33.0	 1.03619	 3.6	 1	 65	 0.75	 0.0	 0.0	 0.0	 0.0	 0.0	 0.0	 0.0	 0.0	 0.0	 0.0	 0.0; % NG
	453	 33.0	 -7.0	 51.0	 -51.0	 1.0809	 6.1	 1	 102	 2.605	 0.0	 0.0	 0.0	 0.0	 0.0	 0.0	 0.0	 0.0	 0.0	 0.0	 0.0; % NG
	453	 0.0	 0.0	 2.0	 0.0	 1.0809	 6.1	 0	 0	 0.0	 0.0	 0.0	 0.0	 0.0	 0.0	 0.0	 0.0	 0.0	 0.0	 0.0	 0.0; % SYNC
	486	 40.0	 15.0	 35.0	 -35.0	 1.03025	 1.7	 1	 69	 0.7	 0.0	 0.0	 0.0	 0.0	 0.0	 0.0	 0.0	 0.0	 0.0	 0.0	 0.0; % PEL
	537	 141.0	 21.0	 155.0	 -155.0	 1.06135	 53.9	 1	 310	 12.5	 0.0	 0.0	 0.0	 0.0	 0.0	 0.0	 0.0	 0.0	 0.0	 0.0	 0.0; % NG
	537	 0.0	 0.0	 14.0	 0.0	 1.06135	 34.9	 0	 0	 0.0	 0.0	 0.0	 0.0	 0.0	 0.0	 0.0	 0.0	 0.0	 0.0	 0.0	 0.0; % SYNC
	537	 0.0	 0.0	 14.0	 0.0	 1.06135	 34.0	 0	 0	 0.0	 0.0	 0.0	 0.0	 0.0	 0.0	 0.0	 0.0	 0.0	 0.0	 0.0	 0.0; % SYNC
	537	 0.0	 0.0	 14.0	 0.0	 1.06135	 105.9	 0	 0	 0.0	 0.0	 0.0	 0.0	 0.0	 0.0	 0.0	 0.0	 0.0	 0.0	 0.0	 0.0; % SYNC
	537	 0.0	 0.0	 14.0	 0.0	 1.06135	 105.9	 0	 0	 0.0	 0.0	 0.0	 0.0	 0.0	 0.0	 0.0	 0.0	 0.0	 0.0	 0.0	 0.0; % SYNC
	538	 86.0	 16.0	 67.0	 -67.0	 1.06273	 36.5	 1	 134	 10.0	 0.0	 0.0	 0.0	 0.0	 0.0	 0.0	 0.0	 0.0	 0.0	 0.0	 0.0; % COW
	538	 86.0	 16.0	 55.0	 -55.0	 1.06273	 35.6	 1	 110	 10.0	 0.0	 0.0	 0.0	 0.0	 0.0	 0.0	 0.0	 0.0	 0.0	 0.0	 0.0; % PEL
	538	 0.0	 0.0	 17.5	 0.0	 1.06273	 126.2	 0	 0	 0.0	 0.0	 0.0	 0.0	 0.0	 0.0	 0.0	 0.0	 0.0	 0.0	 0.0	 0.0; % SYNC
	538	 0.0	 0.0	 17.5	 0.0	 1.06273	 106.4	 0	 0	 0.0	 0.0	 0.0	 0.0	 0.0	 0.0	 0.0	 0.0	 0.0	 0.0	 0.0	 0.0; % SYNC
	552	 67.0	 1.0	 88.0	 -88.0	 1.05556	 1.7	 1	 176	 0.7	 0.0	 0.0	 0.0	 0.0	 0.0	 0.0	 0.0	 0.0	 0.0	 0.0	 0.0; % NG
	560	 124.0	 23.0	 130.0	 -130.0	 1.05752	 35.4	 1	 259	 11.25	 0.0	 0.0	 0.0	 0.0	 0.0	 0.0	 0.0	 0.0	 0.0	 0.0	 0.0; % PEL
	560	 0.0	 0.0	 5.0	 0.0	 1.05752	 28.4	 0	 0	 0.0	 0.0	 0.0	 0.0	 0.0	 0.0	 0.0	 0.0	 0.0	 0.0	 0.0	 0.0; % SYNC
	560	 0.0	 0.0	 5.0	 0.0	 1.05752	 26.5	 0	 0	 0.0	 0.0	 0.0	 0.0	 0.0	 0.0	 0.0	 0.0	 0.0	 0.0	 0.0	 0.0; % SYNC
	560	 0.0	 0.0	 5.0	 0.0	 1.05752	 30.4	 0	 0	 0.0	 0.0	 0.0	 0.0	 0.0	 0.0	 0.0	 0.0	 0.0	 0.0	 0.0	 0.0; % SYNC
	560	 0.0	 0.0	 5.0	 0.0	 1.05752	 34.4	 0	 0	 0.0	 0.0	 0.0	 0.0	 0.0	 0.0	 0.0	 0.0	 0.0	 0.0	 0.0	 0.0; % SYNC
	561	 169.0	 43.0	 105.0	 -105.0	 1.0595	 35.4	 1	 209	 11.25	 0.0	 0.0	 0.0	 0.0	 0.0	 0.0	 0.0	 0.0	 0.0	 0.0	 0.0; % NG
	561	 0.0	 0.0	 5.0	 0.0	 1.0595	 34.4	 0	 0	 0.0	 0.0	 0.0	 0.0	 0.0	 0.0	 0.0	 0.0	 0.0	 0.0	 0.0	 0.0; % SYNC
	561	 0.0	 0.0	 5.0	 0.0	 1.0595	 26.5	 0	 0	 0.0	 0.0	 0.0	 0.0	 0.0	 0.0	 0.0	 0.0	 0.0	 0.0	 0.0	 0.0; % SYNC
	561	 0.0	 0.0	 5.0	 0.0	 1.0595	 34.4	 0	 0	 0.0	 0.0	 0.0	 0.0	 0.0	 0.0	 0.0	 0.0	 0.0	 0.0	 0.0	 0.0; % SYNC
	574	 51.0	 -14.0	 29.0	 -29.0	 1.07812	 8.9	 1	 57	 0.5	 0.0	 0.0	 0.0	 0.0	 0.0	 0.0	 0.0	 0.0	 0.0	 0.0	 0.0; % NG
	627	 86.0	 -1.0	 99.0	 -99.0	 1.09176	 97.7	 1	 197	 38.0	 0.0	 0.0	 0.0	 0.0	 0.0	 0.0	 0.0	 0.0	 0.0	 0.0	 0.0; % PEL
	627	 40.0	 -1.0	 30.0	 -25.0	 1.09176	 46.8	 1	 50	 15.0	 0.0	 0.0	 0.0	 0.0	 0.0	 0.0	 0.0	 0.0	 0.0	 0.0	 0.0; % PEL
	665	 170.0	 16.0	 412.0	 -412.0	 1.09108	 267.7	 1	 824	 65.0	 0.0	 0.0	 0.0	 0.0	 0.0	 0.0	 0.0	 0.0	 0.0	 0.0	 0.0; % COW
	666	 0.0	 0.0	 145.0	 -76.0	 1.09079	 267.7	 0	 151	 65.0	 0.0	 0.0	 0.0	 0.0	 0.0	 0.0	 0.0	 0.0	 0.0	 0.0	 0.0; % COW
	686	 148.0	 -5.0	 89.0	 -89.0	 1.09115	 182.5	 1	 177	 70.0	 0.0	 0.0	 0.0	 0.0	 0.0	 0.0	 0.0	 0.0	 0.0	 0.0	 0.0; % PEL
	686	 55.0	 -5.0	 68.0	 -68.0	 1.09115	 77.5	 1	 135	 23.5	 0.0	 0.0	 0.0	 0.0	 0.0	 0.0	 0.0	 0.0	 0.0	 0.0	 0.0; % NG
	692	 26.0	 -1.0	 36.0	 -36.0	 1.09065	 2.7	 1	 72	 0.99	 0.0	 0.0	 0.0	 0.0	 0.0	 0.0	 0.0	 0.0	 0.0	 0.0	 0.0; % PEL
	717	 37.0	 5.0	 40.0	 -40.0	 1.08239	 10.1	 1	 80	 0.66	 0.0	 0.0	 0.0	 0.0	 0.0	 0.0	 0.0	 0.0	 0.0	 0.0	 0.0; % PEL
	741	 147.0	 -28.0	 130.0	 -81.0	 1.09099	 259.9	 1	 161	 64.5	 0.0	 0.0	 0.0	 0.0	 0.0	 0.0	 0.0	 0.0	 0.0	 0.0	 0.0; % NG
	764	 113.0	 13.0	 115.0	 -115.0	 1.06965	 105.4	 1	 229	 41.0	 0.0	 0.0	 0.0	 0.0	 0.0	 0.0	 0.0	 0.0	 0.0	 0.0	 0.0; % COW
	793	 93.0	 21.0	 53.0	 -53.0	 1.04724	 8.3	 1	 106	 0.5	 0.0	 0.0	 0.0	 0.0	 0.0	 0.0	 0.0	 0.0	 0.0	 0.0	 0.0; % PEL
	797	 0.0	 0.0	 23.0	 0.0	 1.0493	 71.9	 0	 0	 0.0	 0.0	 0.0	 0.0	 0.0	 0.0	 0.0	 0.0	 0.0	 0.0	 0.0	 0.0; % SYNC
	797	 0.0	 0.0	 23.0	 0.0	 1.0493	 71.9	 0	 0	 0.0	 0.0	 0.0	 0.0	 0.0	 0.0	 0.0	 0.0	 0.0	 0.0	 0.0	 0.0; % SYNC
	797	 0.0	 0.0	 11.0	 0.0	 1.0493	 32.9	 0	 0	 0.0	 0.0	 0.0	 0.0	 0.0	 0.0	 0.0	 0.0	 0.0	 0.0	 0.0	 0.0; % SYNC
	797	 0.0	 0.0	 10.0	 0.0	 1.0493	 32.6	 0	 0	 0.0	 0.0	 0.0	 0.0	 0.0	 0.0	 0.0	 0.0	 0.0	 0.0	 0.0	 0.0; % SYNC
	808	 0.0	 0.0	 10.0	 -6.0	 1.07568	 125.4	 0	 11	 84.0	 0.0	 0.0	 0.0	 0.0	 0.0	 0.0	 0.0	 0.0	 0.0	 0.0	 0.0; % NG
	809	 108.0	 11.0	 141.0	 -141.0	 1.09118	 125.4	 1	 282	 46.0	 0.0	 0.0	 0.0	 0.0	 0.0	 0.0	 0.0	 0.0	 0.0	 0.0	 0.0; % NG
	846	 28.0	 2.0	 17.0	 -17.0	 1.07424	 33.0	 1	 34	 7.498	 0.0	 0.0	 0.0	 0.0	 0.0	 0.0	 0.0	 0.0	 0.0	 0.0	 0.0; % COW
	846	 28.0	 2.0	 42.0	 -42.0	 1.07424	 33.0	 1	 83	 7.498	 0.0	 0.0	 0.0	 0.0	 0.0	 0.0	 0.0	 0.0	 0.0	 0.0	 0.0; % NG
	846	 0.0	 0.0	 0.0	 0.0	 1.07424	 19.0	 0	 0	 0.0	 0.0	 0.0	 0.0	 0.0	 0.0	 0.0	 0.0	 0.0	 0.0	 0.0	 0.0; % SYNC
	846	 0.0	 0.0	 0.0	 0.0	 1.07424	 19.0	 0	 0	 0.0	 0.0	 0.0	 0.0	 0.0	 0.0	 0.0	 0.0	 0.0	 0.0	 0.0	 0.0; % SYNC
	878	 69.0	 -4.0	 41.2	 -35.0	 1.08146	 87.7	 1	 69	 17.495	 0.0	 0.0	 0.0	 0.0	 0.0	 0.0	 0.0	 0.0	 0.0	 0.0	 0.0; % PEL
	901	 0.0	 0.0	 45.0	 -10.0	 1.07665	 65.8	 0	 0	 0.0	 0.0	 0.0	 0.0	 0.0	 0.0	 0.0	 0.0	 0.0	 0.0	 0.0	 0.0; % SYNC
	901	 108.0	 -25.0	 186.0	 -186.0	 1.07665	 71.1	 1	 372	 22.494	 0.0	 0.0	 0.0	 0.0	 0.0	 0.0	 0.0	 0.0	 0.0	 0.0	 0.0; % NG
	901	 0.0	 0.0	 45.0	 -10.0	 1.07665	 71.1	 0	 0	 0.0	 0.0	 0.0	 0.0	 0.0	 0.0	 0.0	 0.0	 0.0	 0.0	 0.0	 0.0; % SYNC
	976	 0.0	 0.0	 110.0	 -40.0	 1.08472	 162.2	 0	 0	 0.0	 0.0	 0.0	 0.0	 0.0	 0.0	 0.0	 0.0	 0.0	 0.0	 0.0	 0.0; % SYNC
	977	 122.0	 -51.0	 110.0	 -69.0	 1.08973	 162.2	 1	 138	 49.9865	 0.0	 0.0	 0.0	 0.0	 0.0	 0.0	 0.0	 0.0	 0.0	 0.0	 0.0; % NG
	981	 0.0	 0.0	 0.0	 0.0	 1.08908	 16.8	 0	 0	 0.0	 0.0	 0.0	 0.0	 0.0	 0.0	 0.0	 0.0	 0.0	 0.0	 0.0	 0.0; % SYNC
	1002	 253.0	 -78.0	 240.0	 -137.0	 1.09091	 454.5	 1	 274	 110.0	 0.0	 0.0	 0.0	 0.0	 0.0	 0.0	 0.0	 0.0	 0.0	 0.0	 0.0; % COW
	1003	 0.0	 0.0	 227.0	 -122.0	 1.08396	 434.1	 0	 244	 110.0	 0.0	 0.0	 0.0	 0.0	 0.0	 0.0	 0.0	 0.0	 0.0	 0.0	 0.0; % NG
	1007	 20.0	 94.0	 112.8	 -112.8	 1.08685	 7.1	 1	 91	 2.999	 0.0	 0.0	 0.0	 0.0	 0.0	 0.0	 0.0	 0.0	 0.0	 0.0	 0.0; % NG
	1006	 18.0	 -268.0	 321.6	 -321.6	 1.08685	 4.0	 1	 63	 1.9995	 0.0	 0.0	 0.0	 0.0	 0.0	 0.0	 0.0	 0.0	 0.0	 0.0	 0.0; % NG
	1007	 18.0	 94.0	 112.8	 -112.8	 1.08685	 5.0	 1	 30	 1.9995	 0.0	 0.0	 0.0	 0.0	 0.0	 0.0	 0.0	 0.0	 0.0	 0.0	 0.0; % NG
	1007	 0.0	 0.0	 0.0	 0.0	 1.08685	 6.0	 0	 0	 0.0	 0.0	 0.0	 0.0	 0.0	 0.0	 0.0	 0.0	 0.0	 0.0	 0.0	 0.0; % SYNC
	1008	 0.0	 0.0	 110.0	 -40.0	 1.08742	 174.1	 0	 0	 0.0	 0.0	 0.0	 0.0	 0.0	 0.0	 0.0	 0.0	 0.0	 0.0	 0.0	 0.0; % SYNC
	1014	 72.0	 -38.0	 45.6	 -45.6	 1.08325	 20.6	 1	 73	 7.498	 0.0	 0.0	 0.0	 0.0	 0.0	 0.0	 0.0	 0.0	 0.0	 0.0	 0.0; % PEL
	1014	 0.0	 0.0	 0.0	 0.0	 1.08325	 12.8	 0	 0	 0.0	 0.0	 0.0	 0.0	 0.0	 0.0	 0.0	 0.0	 0.0	 0.0	 0.0	 0.0; % SYNC
	1014	 0.0	 0.0	 0.0	 0.0	 1.08325	 12.5	 0	 0	 0.0	 0.0	 0.0	 0.0	 0.0	 0.0	 0.0	 0.0	 0.0	 0.0	 0.0	 0.0; % SYNC
	1016	 0.0	 0.0	 0.0	 0.0	 1.08029	 20.0	 0	 0	 0.0	 0.0	 0.0	 0.0	 0.0	 0.0	 0.0	 0.0	 0.0	 0.0	 0.0	 0.0; % SYNC
	1016	 0.0	 0.0	 0.0	 0.0	 1.08029	 19.0	 0	 0	 0.0	 0.0	 0.0	 0.0	 0.0	 0.0	 0.0	 0.0	 0.0	 0.0	 0.0	 0.0; % SYNC
	1025	 141.0	 122.0	 185.0	 -185.0	 1.07158	 30.0	 1	 369	 5.9985	 0.0	 0.0	 0.0	 0.0	 0.0	 0.0	 0.0	 0.0	 0.0	 0.0	 0.0; % NG
	1026	 0.0	 0.0	 18.0	 -0.0	 1.07151	 30.0	 0	 0	 0.0	 0.0	 0.0	 0.0	 0.0	 0.0	 0.0	 0.0	 0.0	 0.0	 0.0	 0.0; % SYNC
	1027	 0.0	 0.0	 14.0	 -0.0	 1.07147	 32.2	 0	 0	 0.0	 0.0	 0.0	 0.0	 0.0	 0.0	 0.0	 0.0	 0.0	 0.0	 0.0	 0.0; % SYNC
	1114	 0.0	 0.0	 37.5	 -0.0	 1.08691	 62.5	 0	 0	 0.0	 0.0	 0.0	 0.0	 0.0	 0.0	 0.0	 0.0	 0.0	 0.0	 0.0	 0.0; % SYNC
	1115	 0.0	 0.0	 37.5	 -0.0	 1.0759	 62.5	 0	 0	 0.0	 0.0	 0.0	 0.0	 0.0	 0.0	 0.0	 0.0	 0.0	 0.0	 0.0	 0.0; % SYNC
	1114	 118.0	 -163.0	 195.6	 -195.6	 1.08691	 62.5	 1	 263	 19.9945	 0.0	 0.0	 0.0	 0.0	 0.0	 0.0	 0.0	 0.0	 0.0	 0.0	 0.0; % NG
	1116	 0.0	 0.0	 37.5	 -0.0	 1.08062	 62.5	 0	 0	 0.0	 0.0	 0.0	 0.0	 0.0	 0.0	 0.0	 0.0	 0.0	 0.0	 0.0	 0.0; % SYNC
	1153	 62.0	 -1.0	 53.0	 -53.0	 1.07018	 30.5	 1	 105	 8.4975	 0.0	 0.0	 0.0	 0.0	 0.0	 0.0	 0.0	 0.0	 0.0	 0.0	 0.0; % PEL
	1153	 0.0	 0.0	 0.0	 0.0	 1.07018	 6.0	 0	 0	 0.0	 0.0	 0.0	 0.0	 0.0	 0.0	 0.0	 0.0	 0.0	 0.0	 0.0	 0.0; % SYNC
	1154	 59.0	 -2.0	 80.0	 -80.0	 1.07027	 30.5	 1	 160	 8.4975	 0.0	 0.0	 0.0	 0.0	 0.0	 0.0	 0.0	 0.0	 0.0	 0.0	 0.0; % PEL
	1154	 0.0	 0.0	 0.0	 0.0	 1.07027	 25.0	 0	 0	 0.0	 0.0	 0.0	 0.0	 0.0	 0.0	 0.0	 0.0	 0.0	 0.0	 0.0	 0.0; % SYNC
	1155	 62.0	 -6.0	 123.0	 -123.0	 1.07285	 30.5	 1	 246	 7.998	 0.0	 0.0	 0.0	 0.0	 0.0	 0.0	 0.0	 0.0	 0.0	 0.0	 0.0; % COW
	1155	 0.0	 0.0	 0.0	 0.0	 1.07285	 6.0	 0	 0	 0.0	 0.0	 0.0	 0.0	 0.0	 0.0	 0.0	 0.0	 0.0	 0.0	 0.0	 0.0; % SYNC
	1180	 122.0	 -19.0	 89.0	 -89.0	 1.08018	 87.5	 1	 177	 29.992	 0.0	 0.0	 0.0	 0.0	 0.0	 0.0	 0.0	 0.0	 0.0	 0.0	 0.0; % NG
	1181	 0.0	 0.0	 52.5	 0.0	 1.08122	 87.5	 0	 0	 0.0	 0.0	 0.0	 0.0	 0.0	 0.0	 0.0	 0.0	 0.0	 0.0	 0.0	 0.0; % SYNC
	1181	 0.0	 0.0	 42.0	 -0.0	 1.08122	 65.3	 0	 0	 0.0	 0.0	 0.0	 0.0	 0.0	 0.0	 0.0	 0.0	 0.0	 0.0	 0.0	 0.0; % SYNC
	1189	 117.0	 -18.0	 143.0	 -143.0	 1.07992	 50.0	 1	 286	 24.993	 0.0	 0.0	 0.0	 0.0	 0.0	 0.0	 0.0	 0.0	 0.0	 0.0	 0.0; % COW
	1247	 67.0	 -32.0	 44.0	 -44.0	 1.07484	 16.7	 1	 87	 4.9985	 0.0	 0.0	 0.0	 0.0	 0.0	 0.0	 0.0	 0.0	 0.0	 0.0	 0.0; % NG
	1247	 0.0	 0.0	 0.0	 0.0	 1.07484	 24.0	 0	 0	 0.0	 0.0	 0.0	 0.0	 0.0	 0.0	 0.0	 0.0	 0.0	 0.0	 0.0	 0.0; % SYNC
	1248	 0.0	 0.0	 0.0	 0.0	 1.07711	 14.6	 0	 0	 0.0	 0.0	 0.0	 0.0	 0.0	 0.0	 0.0	 0.0	 0.0	 0.0	 0.0	 0.0; % SYNC
	1248	 0.0	 0.0	 0.0	 0.0	 1.07711	 14.6	 0	 0	 0.0	 0.0	 0.0	 0.0	 0.0	 0.0	 0.0	 0.0	 0.0	 0.0	 0.0	 0.0; % SYNC
...
];

%% generator cost data
%	2	startup	shutdown	n	c(n-1)	...	c0
mpc.gencost = [
	2	 0.0	 0.0	 3	   0.000000	   0.331830	   0.000000; % COW
	2	 0.0	 0.0	 3	   0.000000	   0.946199	   0.000000; % NG
	2	 0.0	 0.0	 3	   0.000000	   1.085468	   0.000000; % NG
	2	 0.0	 0.0	 3	   0.000000	   1.071765	   0.000000; % NG
	2	 0.0	 0.0	 3	   0.000000	   0.643650	   0.000000; % COW
	2	 0.0	 0.0	 3	   0.000000	   1.111621	   0.000000; % NG
	2	 0.0	 0.0	 3	   0.000000	   0.786850	   0.000000; % COW
	2	 0.0	 0.0	 3	   0.000000	   0.892571	   0.000000; % COW
	2	 0.0	 0.0	 3	   0.000000	   0.202515	   0.000000; % NUC
	2	 0.0	 0.0	 3	   0.000000	   0.214025	   0.000000; % NUC
	2	 0.0	 0.0	 3	   0.000000	   1.064183	   0.000000; % NG
	2	 0.0	 0.0	 3	   0.000000	   1.214639	   0.000000; % NG
	2	 0.0	 0.0	 3	   0.000000	   1.038248	   0.000000; % COW
	2	 0.0	 0.0	 3	   0.000000	   1.177364	   0.000000; % NG
	2	 0.0	 0.0	 3	   0.000000	   0.972512	   0.000000; % NG
	2	 0.0	 0.0	 3	   0.000000	   1.031230	   0.000000; % NG
	2	 0.0	 0.0	 3	   0.000000	   1.402757	   0.000000; % NG
	2	 0.0	 0.0	 3	   0.000000	   1.240796	   0.000000; % NG
	2	 0.0	 0.0	 3	   0.000000	   0.824113	   0.000000; % COW
	2	 0.0	 0.0	 3	   0.000000	   0.639527	   0.000000; % COW
	2	 0.0	 0.0	 3	   0.000000	   0.941374	   0.000000; % NG
	2	 0.0	 0.0	 3	   0.000000	   1.051428	   0.000000; % NG
	2	 0.0	 0.0	 3	   0.000000	   0.583692	   0.000000; % COW
	2	 0.0	 0.0	 3	   0.000000	   0.933472	   0.000000; % NG
	2	 0.0	 0.0	 3	   0.000000	   1.056315	   0.000000; % NG
	2	 0.0	 0.0	 3	   0.000000	   0.668561	   0.000000; % COW
	2	 0.0	 0.0	 3	   0.000000	   1.164514	   0.000000; % NG
	2	 0.0	 0.0	 3	   0.000000	   0.843342	   0.000000; % NG
	2	 0.0	 0.0	 3	   0.000000	   0.712489	   0.000000; % COW
	2	 0.0	 0.0	 3	   0.000000	   0.771601	   0.000000; % NG
	2	 0.0	 0.0	 3	   0.000000	   0.884497	   0.000000; % COW
	2	 0.0	 0.0	 3	   0.000000	   1.127971	   0.000000; % NG
	2	 0.0	 0.0	 3	   0.000000	   1.159847	   0.000000; % COW
	2	 0.0	 0.0	 3	   0.000000	   0.762534	   0.000000; % NG
	2	 0.0	 0.0	 3	   0.000000	   0.849643	   0.000000; % NG
	2	 0.0	 0.0	 3	   0.000000	   0.991080	   0.000000; % NG
	2	 0.0	 0.0	 3	   0.000000	   0.901369	   0.000000; % NG
	2	 0.0	 0.0	 3	   0.000000	   7.079945	   0.000000; % PEL
	2	 0.0	 0.0	 3	   0.000000	   0.973425	   0.000000; % COW
	2	 0.0	 0.0	 3	   0.000000	   1.003713	   0.000000; % NG
	2	 0.0	 0.0	 3	   0.000000	   1.320334	   0.000000; % NG
	2	 0.0	 0.0	 3	   0.000000	   1.200711	   0.000000; % NG
	2	 0.0	 0.0	 3	   0.000000	   0.847990	   0.000000; % NG
	2	 0.0	 0.0	 3	   0.000000	   0.868554	   0.000000; % NG
	2	 0.0	 0.0	 3	   0.000000	   0.676914	   0.000000; % COW
	2	 0.0	 0.0	 3	   0.000000	   0.626248	   0.000000; % NG
	2	 0.0	 0.0	 3	   0.000000	   0.955427	   0.000000; % NG
	2	 0.0	 0.0	 3	   0.000000	   1.015071	   0.000000; % NG
	2	 0.0	 0.0	 3	   0.000000	   1.186622	   0.000000; % NG
	2	 0.0	 0.0	 3	   0.000000	   1.216334	   0.000000; % NG
	2	 0.0	 0.0	 3	   0.000000	   0.000000	   0.000000; % SYNC
	2	 0.0	 0.0	 3	   0.000000	   0.000000	   0.000000; % SYNC
	2	 0.0	 0.0	 3	   0.000000	   0.000000	   0.000000; % SYNC
	2	 0.0	 0.0	 3	   0.000000	   0.000000	   0.000000; % SYNC
	2	 0.0	 0.0	 3	   0.000000	   0.986019	   0.000000; % NG
	2	 0.0	 0.0	 3	   0.000000	   1.741582	   0.000000; % NG
	2	 0.0	 0.0	 3	   0.000000	   0.761323	   0.000000; % NG
	2	 0.0	 0.0	 3	   0.000000	   1.596646	   0.000000; % NG
	2	 0.0	 0.0	 3	   0.000000	   0.726446	   0.000000; % NG
	2	 0.0	 0.0	 3	   0.000000	   0.788201	   0.000000; % COW
	2	 0.0	 0.0	 3	   0.000000	   0.876113	   0.000000; % NG
	2	 0.0	 0.0	 3	   0.000000	   1.332589	   0.000000; % NG
	2	 0.0	 0.0	 3	   0.000000	   0.596546	   0.000000; % COW
	2	 0.0	 0.0	 3	   0.000000	   0.476237	   0.000000; % COW
	2	 0.0	 0.0	 3	   0.000000	   0.589048	   0.000000; % NG
	2	 0.0	 0.0	 3	   0.000000	   1.174045	   0.000000; % NG
	2	 0.0	 0.0	 3	   0.000000	   0.770901	   0.000000; % NG
	2	 0.0	 0.0	 3	   0.000000	   1.312512	   0.000000; % NG
	2	 0.0	 0.0	 3	   0.000000	   0.936318	   0.000000; % NG
	2	 0.0	 0.0	 3	   0.000000	   1.136572	   0.000000; % NG
	2	 0.0	 0.0	 3	   0.000000	   0.833162	   0.000000; % NG
	2	 0.0	 0.0	 3	   0.000000	   1.051711	   0.000000; % COW
	2	 0.0	 0.0	 3	   0.000000	   0.975658	   0.000000; % COW
	2	 0.0	 0.0	 3	   0.000000	   1.157541	   0.000000; % NG
	2	 0.0	 0.0	 3	   0.000000	   1.325874	   0.000000; % NG
	2	 0.0	 0.0	 3	   0.000000	   1.063286	   0.000000; % COW
	2	 0.0	 0.0	 3	   0.000000	   1.200473	   0.000000; % NG
	2	 0.0	 0.0	 3	   0.000000	   1.005440	   0.000000; % NG
	2	 0.0	 0.0	 3	   0.000000	   1.117849	   0.000000; % NG
	2	 0.0	 0.0	 3	   0.000000	   0.989842	   0.000000; % NG
	2	 0.0	 0.0	 3	   0.000000	   0.660936	   0.000000; % COW
	2	 0.0	 0.0	 3	   0.000000	   0.000000	   0.000000; % SYNC
	2	 0.0	 0.0	 3	   0.000000	   0.000000	   0.000000; % SYNC
	2	 0.0	 0.0	 3	   0.000000	   0.000000	   0.000000; % SYNC
	2	 0.0	 0.0	 3	   0.000000	   0.000000	   0.000000; % SYNC
	2	 0.0	 0.0	 3	   0.000000	   7.336533	   0.000000; % PEL
	2	 0.0	 0.0	 3	   0.000000	   0.000000	   0.000000; % SYNC
	2	 0.0	 0.0	 3	   0.000000	   0.000000	   0.000000; % SYNC
	2	 0.0	 0.0	 3	   0.000000	   6.748987	   0.000000; % PEL
	2	 0.0	 0.0	 3	   0.000000	   0.770486	   0.000000; % NG
	2	 0.0	 0.0	 3	   0.000000	   6.715565	   0.000000; % PEL
	2	 0.0	 0.0	 3	   0.000000	   1.479313	   0.000000; % NG
	2	 0.0	 0.0	 3	   0.000000	   0.714680	   0.000000; % COW
	2	 0.0	 0.0	 3	   0.000000	   0.000000	   0.000000; % SYNC
	2	 0.0	 0.0	 3	   0.000000	   0.000000	   0.000000; % SYNC
	2	 0.0	 0.0	 3	   0.000000	   0.913565	   0.000000; % NG
	2	 0.0	 0.0	 3	   0.000000	   0.000000	   0.000000; % SYNC
	2	 0.0	 0.0	 3	   0.000000	   0.000000	   0.000000; % SYNC
	2	 0.0	 0.0	 3	   0.000000	   0.000000	   0.000000; % SYNC
	2	 0.0	 0.0	 3	   0.000000	   0.000000	   0.000000; % SYNC
	2	 0.0	 0.0	 3	   0.000000	   0.000000	   0.000000; % SYNC
	2	 0.0	 0.0	 3	   0.000000	   0.000000	   0.000000; % SYNC
	2	 0.0	 0.0	 3	   0.000000	   1.081828	   0.000000; % NG
	2	 0.0	 0.0	 3	   0.000000	   0.000000	   0.000000; % SYNC
	2	 0.0	 0.0	 3	   0.000000	   6.521001	   0.000000; % PEL
	2	 0.0	 0.0	 3	   0.000000	   0.000000	   0.000000; % SYNC
	2	 0.0	 0.0	 3	   0.000000	   0.000000	   0.000000; % SYNC
	2	 0.0	 0.0	 3	   0.000000	   7.239794	   0.000000; % PEL
	2	 0.0	 0.0	 3	   0.000000	   1.053762	   0.000000; % NG
	2	 0.0	 0.0	 3	   0.000000	   0.826959	   0.000000; % NG
	2	 0.0	 0.0	 3	   0.000000	   1.267299	   0.000000; % NG
	2	 0.0	 0.0	 3	   0.000000	   0.747133	   0.000000; % COW
	2	 0.0	 0.0	 3	   0.000000	   1.181493	   0.000000; % NG
	2	 0.0	 0.0	 3	   0.000000	   0.756487	   0.000000; % NG
	2	 0.0	 0.0	 3	   0.000000	   7.173285	   0.000000; % PEL
	2	 0.0	 0.0	 3	   0.000000	   0.814227	   0.000000; % NG
	2	 0.0	 0.0	 3	   0.000000	   0.784541	   0.000000; % NG
	2	 0.0	 0.0	 3	   0.000000	   0.000000	   0.000000; % SYNC
	2	 0.0	 0.0	 3	   0.000000	   6.396306	   0.000000; % PEL
	2	 0.0	 0.0	 3	   0.000000	   1.216738	   0.000000; % NG
	2	 0.0	 0.0	 3	   0.000000	   0.000000	   0.000000; % SYNC
	2	 0.0	 0.0	 3	   0.000000	   0.000000	   0.000000; % SYNC
	2	 0.0	 0.0	 3	   0.000000	   0.000000	   0.000000; % SYNC
	2	 0.0	 0.0	 3	   0.000000	   0.000000	   0.000000; % SYNC
	2	 0.0	 0.0	 3	   0.000000	   0.799942	   0.000000; % COW
	2	 0.0	 0.0	 3	   0.000000	   6.833889	   0.000000; % PEL
	2	 0.0	 0.0	 3	   0.000000	   0.000000	   0.000000; % SYNC
	2	 0.0	 0.0	 3	   0.000000	   0.000000	   0.000000; % SYNC
	2	 0.0	 0.0	 3	   0.000000	   0.949256	   0.000000; % NG
	2	 0.0	 0.0	 3	   0.000000	   6.995996	   0.000000; % PEL
	2	 0.0	 0.0	 3	   0.000000	   0.000000	   0.000000; % SYNC
	2	 0.0	 0.0	 3	   0.000000	   0.000000	   0.000000; % SYNC
	2	 0.0	 0.0	 3	   0.000000	   0.000000	   0.000000; % SYNC
	2	 0.0	 0.0	 3	   0.000000	   0.000000	   0.000000; % SYNC
	2	 0.0	 0.0	 3	   0.000000	   1.143197	   0.000000; % NG
	2	 0.0	 0.0	 3	   0.000000	   0.000000	   0.000000; % SYNC
	2	 0.0	 0.0	 3	   0.000000	   0.000000	   0.000000; % SYNC
	2	 0.0	 0.0	 3	   0.000000	   0.000000	   0.000000; % SYNC
	2	 0.0	 0.0	 3	   0.000000	   0.992569	   0.000000; % NG
	2	 0.0	 0.0	 3	   0.000000	   7.419474	   0.000000; % PEL
	2	 0.0	 0.0	 3	   0.000000	   7.032949	   0.000000; % PEL
	2	 0.0	 0.0	 3	   0.000000	   0.686292	   0.000000; % COW
	2	 0.0	 0.0	 3	   0.000000	   1.104684	   0.000000; % COW
	2	 0.0	 0.0	 3	   0.000000	   6.717346	   0.000000; % PEL
	2	 0.0	 0.0	 3	   0.000000	   1.417741	   0.000000; % NG
	2	 0.0	 0.0	 3	   0.000000	   7.258388	   0.000000; % PEL
	2	 0.0	 0.0	 3	   0.000000	   6.551092	   0.000000; % PEL
	2	 0.0	 0.0	 3	   0.000000	   1.223929	   0.000000; % NG
	2	 0.0	 0.0	 3	   0.000000	   0.682122	   0.000000; % COW
	2	 0.0	 0.0	 3	   0.000000	   6.492574	   0.000000; % PEL
	2	 0.0	 0.0	 3	   0.000000	   0.000000	   0.000000; % SYNC
	2	 0.0	 0.0	 3	   0.000000	   0.000000	   0.000000; % SYNC
	2	 0.0	 0.0	 3	   0.000000	   0.000000	   0.000000; % SYNC
	2	 0.0	 0.0	 3	   0.000000	   0.000000	   0.000000; % SYNC
	2	 0.0	 0.0	 3	   0.000000	   1.202633	   0.000000; % NG
	2	 0.0	 0.0	 3	   0.000000	   1.212086	   0.000000; % NG
	2	 0.0	 0.0	 3	   0.000000	   0.731901	   0.000000; % COW
	2	 0.0	 0.0	 3	   0.000000	   1.193507	   0.000000; % NG
	2	 0.0	 0.0	 3	   0.000000	   0.000000	   0.000000; % SYNC
	2	 0.0	 0.0	 3	   0.000000	   0.000000	   0.000000; % SYNC
	2	 0.0	 0.0	 3	   0.000000	   6.928484	   0.000000; % PEL
	2	 0.0	 0.0	 3	   0.000000	   0.000000	   0.000000; % SYNC
	2	 0.0	 0.0	 3	   0.000000	   1.130306	   0.000000; % NG
	2	 0.0	 0.0	 3	   0.000000	   0.000000	   0.000000; % SYNC
	2	 0.0	 0.0	 3	   0.000000	   0.000000	   0.000000; % SYNC
	2	 0.0	 0.0	 3	   0.000000	   0.977028	   0.000000; % NG
	2	 0.0	 0.0	 3	   0.000000	   0.000000	   0.000000; % SYNC
	2	 0.0	 0.0	 3	   0.000000	   0.787897	   0.000000; % COW
	2	 0.0	 0.0	 3	   0.000000	   0.881308	   0.000000; % NG
	2	 0.0	 0.0	 3	   0.000000	   1.240868	   0.000000; % NG
	2	 0.0	 0.0	 3	   0.000000	   1.122361	   0.000000; % NG
	2	 0.0	 0.0	 3	   0.000000	   0.983525	   0.000000; % NG
	2	 0.0	 0.0	 3	   0.000000	   0.000000	   0.000000; % SYNC
	2	 0.0	 0.0	 3	   0.000000	   0.000000	   0.000000; % SYNC
	2	 0.0	 0.0	 3	   0.000000	   6.974308	   0.000000; % PEL
	2	 0.0	 0.0	 3	   0.000000	   0.000000	   0.000000; % SYNC
	2	 0.0	 0.0	 3	   0.000000	   0.000000	   0.000000; % SYNC
	2	 0.0	 0.0	 3	   0.000000	   0.000000	   0.000000; % SYNC
	2	 0.0	 0.0	 3	   0.000000	   0.000000	   0.000000; % SYNC
	2	 0.0	 0.0	 3	   0.000000	   1.480557	   0.000000; % NG
	2	 0.0	 0.0	 3	   0.000000	   0.000000	   0.000000; % SYNC
	2	 0.0	 0.0	 3	   0.000000	   0.000000	   0.000000; % SYNC
	2	 0.0	 0.0	 3	   0.000000	   0.000000	   0.000000; % SYNC
	2	 0.0	 0.0	 3	   0.000000	   0.000000	   0.000000; % SYNC
	2	 0.0	 0.0	 3	   0.000000	   0.733220	   0.000000; % NG
	2	 0.0	 0.0	 3	   0.000000	   0.000000	   0.000000; % SYNC
	2	 0.0	 0.0	 3	   0.000000	   7.296510	   0.000000; % PEL
	2	 0.0	 0.0	 3	   0.000000	   0.000000	   0.000000; % SYNC
	2	 0.0	 0.0	 3	   0.000000	   7.205279	   0.000000; % PEL
	2	 0.0	 0.0	 3	   0.000000	   0.000000	   0.000000; % SYNC
	2	 0.0	 0.0	 3	   0.000000	   0.847901	   0.000000; % COW
	2	 0.0	 0.0	 3	   0.000000	   0.000000	   0.000000; % SYNC
	2	 0.0	 0.0	 3	   0.000000	   0.987723	   0.000000; % NG
	2	 0.0	 0.0	 3	   0.000000	   0.000000	   0.000000; % SYNC
	2	 0.0	 0.0	 3	   0.000000	   0.000000	   0.000000; % SYNC
	2	 0.0	 0.0	 3	   0.000000	   1.270626	   0.000000; % COW
	2	 0.0	 0.0	 3	   0.000000	   1.285129	   0.000000; % NG
	2	 0.0	 0.0	 3	   0.000000	   0.000000	   0.000000; % SYNC
	2	 0.0	 0.0	 3	   0.000000	   0.000000	   0.000000; % SYNC
	2	 0.0	 0.0	 3	   0.000000	   0.000000	   0.000000; % SYNC
...
];

%% branch data
%	fbus	tbus	r	x	b	rateA	rateB	rateC	ratio	angle	status	angmin	angmax
mpc.branch = [
	7	 8	 0.00064	 0.0305	 0.0	 400.0	 400.0	 400.0	 1.0435	 -0.6	 1	 -30.0	 30.0;
	26	 28	 0.00036	 0.02519	 0.0	 500.0	 500.0	 500.0	 1.0911	 0.0	 1	 -30.0	 30.0;
	27	 29	 0.00036	 0.02519	 0.0	 500.0	 500.0	 500.0	 1.0759	 0.0	 1	 -30.0	 30.0;
	39	 41	 0.00034	 0.02097	 0.0	 500.0	 500.0	 500.0	 1.0793	 0.0	 1	 -30.0	 30.0;
	42	 45	 0.00034	 0.02097	 0.0	 500.0	 500.0	 500.0	 1.0296	 0.0	 1	 -30.0	 30.0;
	54	 56	 0.00081	 0.03	 0.0	 400.0	 400.0	 400.0	 1.0501	 0.0	 1	 -30.0	 30.0;
	63	 65	 0.00015	 0.01071	 0.0	 1250.0	 1250.0	 1250.0	 0.9673	 0.0	 1	 -30.0	 30.0;
	64	 65	 0.00015	 0.01071	 0.0	 1250.0	 1250.0	 1250.0	 0.9665	 0.0	 0	 -30.0	 30.0;
	90	 92	 0.00075	 0.02444	 -0.00832	 330.0	 330.0	 330.0	 1.0474	 0.0	 1	 -30.0	 30.0;
	91	 93	 0.00075	 0.02469	 -0.008	 330.0	 330.0	 330.0	 1.0445	 0.0	 1	 -30.0	 30.0;
	125	 128	 0.0005	 0.02875	 -0.016	 400.0	 400.0	 400.0	 1.1172	 0.0	 1	 -30.0	 30.0;
	149	 150	 0.00064	 0.0305	 0.0	 400.0	 400.0	 400.0	 1.077	 0.0	 1	 -30.0	 30.0;
	155	 157	 0.000232	 0.023	 0.0	 500.0	 500.0	 500.0	 1.0887	 0.0	 1	 -30.0	 30.0;
	156	 158	 0.000232	 0.023	 0.0	 500.0	 500.0	 500.0	 1.0887	 0.0	 1	 -30.0	 30.0;
	169	 171	 0.00035	 0.02375	 0.0	 500.0	 500.0	 500.0	 1.0894	 0.0	 1	 -30.0	 30.0;
	183	 184	 0.00059	 0.030919	 0.0	 400.0	 400.0	 400.0	 1.0584	 0.0	 1	 -30.0	 30.0;
	190	 192	 0.0004	 0.03	 0.0	 500.0	 500.0	 500.0	 1.0855	 3.6	 1	 -30.0	 30.0;
	2727	 157	 0.00031	 0.00338	 0.0992	 1386.0	 1386.0	 1386.0	 0.0	 0.0	 1	 -30.0	 30.0;
	2727	 158	 0.00031	 0.00338	 0.0992	 1386.0	 1386.0	 1386.0	 0.0	 0.0	 1	 -30.0	 30.0;
	2728	 68	 0.014341	 0.083531	 0.126034	 385.0	 385.0	 385.0	 0.0	 0.0	 1	 -30.0	 30.0;
	2726	 76	 0.01219	 0.070659	 0.117418	 412.0	 412.0	 412.0	 0.0	 0.0	 1	 -30.0	 30.0;
	2726	 105	 0.011781	 0.07087	 0.116838	 412.0	 412.0	 412.0	 0.0	 0.0	 1	 -30.0	 30.0;
	127	 2725	 0.001525	 0.016837	 0.50576	 1386.0	 1386.0	 1386.0	 0.0	 0.0	 1	 -30.0	 30.0;
	2729	 148	 0.001651	 0.015909	 0.046948	 316.0	 316.0	 316.0	 0.0	 0.0	 1	 -30.0	 30.0;
	2729	 149	 0.001651	 0.015909	 0.046948	 316.0	 316.0	 316.0	 0.0	 0.0	 1	 -30.0	 30.0;
	2730	 47	 0.00188	 0.02287	 0.6432	 831.0	 831.0	 831.0	 0.0	 0.0	 1	 -30.0	 30.0;
	2730	 48	 0.00188	 0.02287	 0.6432	 831.0	 831.0	 831.0	 0.0	 0.0	 1	 -30.0	 30.0;
	82	 2724	 0.002769	 0.031162	 0.89824	 1386.0	 1386.0	 1386.0	 0.0	 0.0	 1	 -30.0	 30.0;
	42	 23	 0.01345	 0.081141	 0.141134	 339.0	 339.0	 339.0	 0.0	 0.0	 1	 -30.0	 30.0;
	26	 90	 0.009091	 0.062401	 0.111417	 453.0	 453.0	 453.0	 0.0	 0.0	 1	 -30.0	 30.0;
	27	 91	 0.00868	 0.06405	 0.096994	 427.0	 427.0	 427.0	 0.0	 0.0	 1	 -30.0	 30.0;
	146	 30	 0.016961	 0.123659	 0.196988	 316.0	 316.0	 316.0	 0.0	 0.0	 1	 -30.0	 30.0;
	135	 33	 0.00512	 0.02618	 0.029621	 301.0	 301.0	 301.0	 0.0	 0.0	 1	 -30.0	 30.0;
	134	 20	 0.01068	 0.061961	 0.094961	 385.0	 385.0	 385.0	 0.0	 0.0	 1	 -30.0	 30.0;
	164	 21	 0.014651	 0.105891	 0.170852	 316.0	 316.0	 316.0	 0.0	 0.0	 1	 -30.0	 30.0;
	40	 109	 0.01488	 0.08161	 0.114805	 314.0	 314.0	 314.0	 0.0	 0.0	 1	 -30.0	 30.0;
	39	 91	 0.011159	 0.07231	 0.103673	 324.0	 324.0	 324.0	 0.0	 0.0	 1	 -30.0	 30.0;
	178	 83	 0.005517	 0.059484	 0.170775	 316.0	 316.0	 316.0	 0.0	 0.0	 1	 -30.0	 30.0;
	203	 165	 0.01176	 0.068289	 0.102802	 324.0	 324.0	 324.0	 0.0	 0.0	 1	 -30.0	 30.0;
	194	 165	 0.016818	 0.089091	 0.129935	 358.0	 358.0	 358.0	 0.0	 0.0	 1	 -30.0	 30.0;
	193	 164	 0.013843	 0.087025	 0.134842	 383.0	 383.0	 383.0	 0.0	 0.0	 1	 -30.0	 30.0;
	207	 167	 0.01676	 0.097169	 0.148685	 269.0	 269.0	 269.0	 0.0	 0.0	 1	 -30.0	 30.0;
	42	 10	 0.01269	 0.074979	 0.130196	 351.0	 351.0	 351.0	 0.0	 0.0	 1	 -30.0	 30.0;
	198	 18	 0.014091	 0.10413	 0.15972	 316.0	 316.0	 316.0	 0.0	 0.0	 1	 -30.0	 30.0;
	100	 54	 0.003719	 0.0438	 0.100962	 457.0	 457.0	 457.0	 0.0	 0.0	 1	 -30.0	 30.0;
	162	 82	 0.00194	 0.02056	 0.51584	 1178.0	 1178.0	 1178.0	 0.0	 0.0	 1	 -30.0	 30.0;
	44	 9	 0.0015	 0.01506	 0.4032	 1386.0	 1386.0	 1386.0	 0.0	 0.0	 1	 -30.0	 30.0;
	185	 150	 0.00294	 0.03463	 0.9216	 693.0	 693.0	 693.0	 0.0	 0.0	 1	 -30.0	 30.0;
	121	 56	 0.00169	 0.01994	 0.50624	 831.0	 831.0	 831.0	 0.0	 0.0	 1	 -30.0	 30.0;
	29	 93	 0.00137	 0.01625	 0.41184	 1386.0	 1386.0	 1386.0	 0.0	 0.0	 1	 -30.0	 30.0;
	28	 123	 0.00231	 0.02769	 0.70144	 1386.0	 1386.0	 1386.0	 0.0	 0.0	 1	 -30.0	 30.0;
	25	 192	 0.00207	 0.02474	 0.664	 1386.0	 1386.0	 1386.0	 0.0	 0.0	 1	 -30.0	 30.0;
	120	 63	 0.0015	 0.01788	 0.4512	 831.0	 831.0	 831.0	 0.0	 0.0	 1	 -30.0	 30.0;
	122	 63	 0.00469	 0.05544	 1.4048	 831.0	 831.0	 831.0	 0.0	 0.0	 0	 -30.0	 30.0;
	82	 31	 0.00331	 0.03425	 0.85888	 977.0	 977.0	 977.0	 0.0	 0.0	 1	 -30.0	 30.0;
	92	 28	 0.00219	 0.02369	 0.59584	 1178.0	 1178.0	 1178.0	 0.0	 0.0	 1	 -30.0	 30.0;
...